Version 4.1
SHEET 1 904 680
WIRE 32 -32 -144 -32
WIRE 352 -32 32 -32
WIRE -144 48 -144 -32
WIRE 32 80 32 -32
WIRE -144 176 -144 128
WIRE 32 192 32 160
WIRE 240 192 32 192
WIRE 384 192 304 192
WIRE 432 192 384 192
WIRE 32 288 32 192
WIRE -528 336 -560 336
WIRE -384 336 -448 336
WIRE -288 336 -384 336
WIRE -144 336 -144 256
WIRE -144 336 -224 336
WIRE -32 336 -144 336
WIRE 384 336 384 192
WIRE 384 336 240 336
WIRE -384 384 -384 336
WIRE -144 384 -144 336
WIRE 144 384 112 384
WIRE 240 384 240 336
WIRE 32 400 32 384
WIRE 112 400 112 384
WIRE 112 400 32 400
WIRE -144 496 -144 464
WIRE -144 496 -560 496
WIRE 32 496 32 480
WIRE 32 496 -144 496
WIRE 144 496 144 448
WIRE 144 496 32 496
WIRE 240 496 240 464
WIRE 240 496 144 496
WIRE 352 496 240 496
FLAG 32 496 0
FLAG 352 -32 Vcc
FLAG 720 -48 Vcc
FLAG 720 32 0
FLAG 432 192 Vo
FLAG -640 336 0
SYMBOL res -432 320 R90
WINDOW 0 0 56 VBottom 2
WINDOW 3 32 56 VTop 2
SYMATTR InstName R1
SYMATTR Value 5.1k
SYMBOL res -400 368 R0
SYMATTR InstName R2
SYMATTR Value 51
SYMBOL res -160 368 R0
SYMATTR InstName Rb1
SYMATTR Value 24k
SYMBOL res -160 160 R0
SYMATTR InstName Rp1
SYMATTR Value 15k
SYMBOL res -160 32 R0
SYMATTR InstName Rb2
SYMATTR Value 51k
SYMBOL npn -32 288 R0
SYMATTR InstName Q1
SYMBOL res 16 384 R0
SYMATTR InstName Re1
SYMATTR Value 1.8k
SYMBOL res 224 368 R0
SYMATTR InstName RL1
SYMATTR Value 5.1k
SYMBOL res 16 64 R0
SYMATTR InstName Rc1
SYMATTR Value 2.7k
SYMBOL voltage 720 -64 R0
WINDOW 123 0 0 Left 0
WINDOW 39 0 0 Left 0
SYMATTR InstName V1
SYMATTR Value 12
SYMBOL cap -224 320 R90
WINDOW 0 0 32 VBottom 2
WINDOW 3 32 32 VTop 2
SYMATTR InstName C1
SYMATTR Value 10µ
SYMATTR SpiceLine V=6.3 Irms=0 Rser=4 Lser=0 mfg="AVX" pn="TAJA106M006" type="Tantalum"
SYMBOL cap 240 208 R270
WINDOW 0 32 32 VTop 2
WINDOW 3 0 32 VBottom 2
SYMATTR InstName C2
SYMATTR Value 10µ
SYMATTR SpiceLine V=6.3 Irms=0 Rser=4 Lser=0 mfg="AVX" pn="TAJA106M006" type="Tantalum"
SYMBOL cap 128 384 R0
SYMATTR Value 10µ
SYMATTR InstName Ce1
SYMATTR SpiceLine V=6.3 Irms=0 Rser=4 Lser=0 mfg="AVX" pn="TAJA106M006" type="Tantalum"
SYMBOL voltage -544 336 R90
WINDOW 0 -32 56 VBottom 2
WINDOW 3 32 56 VTop 2
WINDOW 123 0 0 Left 0
WINDOW 39 0 0 Left 0
SYMATTR InstName V2
SYMATTR Value SINE(0 7.142m 1k)
TEXT 664 136 Left 2 !.tran 0 0.1 0.09 0.01
