Version 4.1
SHEET 1 968 680
WIRE 96 -160 -80 -160
WIRE 416 -160 96 -160
WIRE -80 -80 -80 -160
WIRE 96 -48 96 -160
WIRE -80 48 -80 0
WIRE 96 64 96 32
WIRE 304 64 96 64
WIRE 448 64 368 64
WIRE 496 64 448 64
WIRE 96 160 96 64
WIRE -464 208 -496 208
WIRE -320 208 -384 208
WIRE -224 208 -320 208
WIRE -80 208 -80 128
WIRE -80 208 -160 208
WIRE 32 208 -80 208
WIRE 448 208 448 64
WIRE 448 208 304 208
WIRE -320 256 -320 208
WIRE -80 256 -80 208
WIRE 208 256 176 256
WIRE 304 256 304 208
WIRE 96 272 96 256
WIRE 176 272 176 256
WIRE 176 272 96 272
WIRE -320 368 -320 336
WIRE -320 368 -496 368
WIRE -80 368 -80 336
WIRE -80 368 -320 368
WIRE 96 368 96 352
WIRE 96 368 -80 368
WIRE 208 368 208 320
WIRE 208 368 96 368
WIRE 304 368 304 336
WIRE 304 368 208 368
WIRE 416 368 304 368
FLAG 96 368 0
FLAG 416 -160 Vcc
FLAG 784 -176 Vcc
FLAG 784 -96 0
FLAG 496 64 Vo
FLAG -576 208 0
SYMBOL res -368 192 R90
WINDOW 0 0 56 VBottom 2
WINDOW 3 32 56 VTop 2
SYMATTR InstName R1
SYMATTR Value 5.1k
SYMBOL res -336 240 R0
SYMATTR InstName R2
SYMATTR Value 51
SYMBOL res -96 240 R0
SYMATTR InstName Rb1
SYMATTR Value 24k
SYMBOL res -96 32 R0
SYMATTR InstName Rp1
SYMATTR Value 15k
SYMBOL res -96 -96 R0
SYMATTR InstName Rb2
SYMATTR Value 51k
SYMBOL npn 32 160 R0
SYMATTR InstName Q1
SYMBOL res 80 256 R0
SYMATTR InstName Re1
SYMATTR Value 1.8k
SYMBOL res 288 240 R0
SYMATTR InstName RL1
SYMATTR Value 5.1k
SYMBOL res 80 -64 R0
SYMATTR InstName Rc1
SYMATTR Value 2.7k
SYMBOL voltage 784 -192 R0
WINDOW 123 0 0 Left 0
WINDOW 39 0 0 Left 0
SYMATTR InstName V1
SYMATTR Value 12
SYMBOL cap -160 192 R90
WINDOW 0 0 32 VBottom 2
WINDOW 3 32 32 VTop 2
SYMATTR InstName C1
SYMATTR Value 10µ
SYMATTR SpiceLine V=6.3 Irms=0 Rser=4 Lser=0 mfg="AVX" pn="TAJA106M006" type="Tantalum"
SYMBOL cap 304 80 R270
WINDOW 0 32 32 VTop 2
WINDOW 3 0 32 VBottom 2
SYMATTR InstName C2
SYMATTR Value 10µ
SYMATTR SpiceLine V=6.3 Irms=0 Rser=4 Lser=0 mfg="AVX" pn="TAJA106M006" type="Tantalum"
SYMBOL cap 192 256 R0
SYMATTR Value 10µ
SYMATTR InstName Ce1
SYMATTR SpiceLine V=6.3 Irms=0 Rser=4 Lser=0 mfg="AVX" pn="TAJA106M006" type="Tantalum"
SYMBOL voltage -480 208 R90
WINDOW 0 -32 56 VBottom 2
WINDOW 3 32 56 VTop 2
WINDOW 123 0 0 Left 0
WINDOW 39 0 0 Left 0
SYMATTR InstName V2
SYMATTR Value SINE(0 714.2m 1k)
TEXT 728 8 Left 2 !.tran 0 0.1 0.09 0.01
