Version 4.1
SHEET 1 952 680
WIRE 80 -144 -96 -144
WIRE 400 -144 80 -144
WIRE -96 -64 -96 -144
WIRE 80 -32 80 -144
WIRE -96 64 -96 16
WIRE 80 80 80 48
WIRE 288 80 80 80
WIRE 480 80 352 80
WIRE 80 176 80 80
WIRE -480 224 -512 224
WIRE -336 224 -400 224
WIRE -240 224 -336 224
WIRE -96 224 -96 144
WIRE -96 224 -176 224
WIRE 16 224 -96 224
WIRE 432 224 288 224
WIRE -336 272 -336 224
WIRE -96 272 -96 224
WIRE 192 272 160 272
WIRE 288 272 288 224
WIRE 80 288 80 272
WIRE 160 288 160 272
WIRE 160 288 80 288
WIRE -336 384 -336 352
WIRE -336 384 -512 384
WIRE -96 384 -96 352
WIRE -96 384 -336 384
WIRE 80 384 80 368
WIRE 80 384 -96 384
WIRE 192 384 192 336
WIRE 192 384 80 384
WIRE 288 384 288 352
WIRE 288 384 192 384
WIRE 400 384 288 384
FLAG 80 384 0
FLAG 400 -144 Vcc
FLAG 768 -160 Vcc
FLAG 768 -80 0
FLAG 480 80 Vo
FLAG -592 224 0
SYMBOL res -384 208 R90
WINDOW 0 0 56 VBottom 2
WINDOW 3 32 56 VTop 2
SYMATTR InstName R1
SYMATTR Value 5.1k
SYMBOL res -352 256 R0
SYMATTR InstName R2
SYMATTR Value 51
SYMBOL res -112 256 R0
SYMATTR InstName Rb1
SYMATTR Value 24k
SYMBOL res -112 48 R0
SYMATTR InstName Rp1
SYMATTR Value 100k
SYMBOL res -112 -80 R0
SYMATTR InstName Rb2
SYMATTR Value 51k
SYMBOL npn 16 176 R0
SYMATTR InstName Q1
SYMBOL res 64 272 R0
SYMATTR InstName Re1
SYMATTR Value 1.8k
SYMBOL res 272 256 R0
SYMATTR InstName RL1
SYMATTR Value 5.1k
SYMBOL res 64 -48 R0
SYMATTR InstName Rc1
SYMATTR Value 5k
SYMBOL voltage 768 -176 R0
WINDOW 123 0 0 Left 0
WINDOW 39 0 0 Left 0
SYMATTR InstName V1
SYMATTR Value 12
SYMBOL cap -176 208 R90
WINDOW 0 0 32 VBottom 2
WINDOW 3 32 32 VTop 2
SYMATTR InstName C1
SYMATTR Value 10µ
SYMATTR SpiceLine V=6.3 Irms=0 Rser=4 Lser=0 mfg="AVX" pn="TAJA106M006" type="Tantalum"
SYMBOL cap 288 96 R270
WINDOW 0 32 32 VTop 2
WINDOW 3 0 32 VBottom 2
SYMATTR InstName C2
SYMATTR Value 10µ
SYMATTR SpiceLine V=6.3 Irms=0 Rser=4 Lser=0 mfg="AVX" pn="TAJA106M006" type="Tantalum"
SYMBOL cap 176 272 R0
SYMATTR Value 10µ
SYMATTR InstName Ce1
SYMATTR SpiceLine V=6.3 Irms=0 Rser=4 Lser=0 mfg="AVX" pn="TAJA106M006" type="Tantalum"
SYMBOL voltage -496 224 R90
WINDOW 0 -32 56 VBottom 2
WINDOW 3 32 56 VTop 2
WINDOW 123 0 0 Left 0
WINDOW 39 0 0 Left 0
SYMATTR InstName V2
SYMATTR Value PULSE(0 1000m 0 0.5m 0.5m 0 0 10)
TEXT 712 24 Left 2 !.tran 0 0.01 0 0.01
