Version 4.1
SHEET 1 1096 680
WIRE 816 80 656 80
WIRE 656 96 656 80
WIRE 656 208 656 176
WIRE 736 208 656 208
WIRE 656 224 656 208
WIRE 448 272 400 272
WIRE 576 272 528 272
WIRE 592 272 576 272
WIRE 656 400 656 320
FLAG 656 400 0
FLAG 816 80 VcIN
FLAG 400 272 VbIN
FLAG 576 272 Vbe
FLAG 736 208 Vce
FLAG 928 208 VbIN
FLAG 1040 208 VcIN
FLAG 928 288 0
FLAG 1040 288 0
SYMBOL res 640 80 R0
SYMATTR InstName R3
SYMATTR Value 200
SYMBOL res 544 256 R90
WINDOW 0 0 56 VBottom 2
WINDOW 3 32 56 VTop 2
SYMATTR InstName R4
SYMATTR Value 10k
SYMBOL voltage 928 192 R0
WINDOW 3 36 80 Left 2
WINDOW 123 0 0 Left 0
WINDOW 39 0 0 Left 0
SYMATTR InstName V1
SYMATTR Value 0
SYMBOL voltage 1040 192 R0
WINDOW 123 0 0 Left 0
WINDOW 39 0 0 Left 0
SYMATTR InstName V2
SYMATTR Value 0
SYMBOL npn4 592 224 R0
SYMATTR InstName Q1
TEXT 824 408 Left 2 !.dc V1 0 1 0.1
