Version 4.1
SHEET 1 880 1220
WIRE 208 -176 192 -176
WIRE 304 -176 272 -176
WIRE 192 -96 192 -176
WIRE 304 -96 304 -176
WIRE 304 -96 272 -96
WIRE -192 0 -208 0
WIRE -96 0 -112 0
WIRE -32 0 -96 0
WIRE 192 0 192 -96
WIRE 192 0 48 0
WIRE 208 0 192 0
WIRE 304 16 304 -96
WIRE 304 16 272 16
WIRE 352 16 304 16
WIRE 496 16 496 0
WIRE 608 16 608 0
WIRE 208 32 176 32
WIRE 176 64 176 32
WIRE 496 112 496 96
WIRE 608 112 608 96
WIRE 304 416 272 416
WIRE -192 512 -208 512
WIRE -96 512 -112 512
WIRE -32 512 -96 512
WIRE 64 512 48 512
WIRE 192 512 192 416
WIRE 192 512 128 512
WIRE 208 512 192 512
WIRE 304 528 304 416
WIRE 304 528 272 528
WIRE 352 528 304 528
WIRE 208 544 176 544
WIRE 176 576 176 544
WIRE 256 816 240 816
WIRE 352 816 320 816
WIRE 240 896 240 816
WIRE 352 896 352 816
WIRE 352 896 320 896
WIRE 736 912 704 912
WIRE -144 992 -160 992
WIRE -48 992 -64 992
WIRE 16 992 -48 992
WIRE 240 992 240 896
WIRE 240 992 96 992
WIRE 256 992 240 992
WIRE 352 1008 352 896
WIRE 352 1008 320 1008
WIRE 400 1008 352 1008
WIRE 496 1008 480 1008
WIRE 624 1008 624 912
WIRE 624 1008 560 1008
WIRE 640 1008 624 1008
WIRE 256 1024 224 1024
WIRE 736 1024 736 912
WIRE 736 1024 704 1024
WIRE 784 1024 736 1024
WIRE 640 1040 608 1040
WIRE 224 1056 224 1024
WIRE 608 1072 608 1040
FLAG -208 0 0
FLAG 352 16 OUT
FLAG -96 0 IN1
FLAG 240 -16 +V
FLAG 240 48 -V
FLAG 176 144 0
FLAG 496 0 +V
FLAG 496 112 0
FLAG 608 0 -V
FLAG 608 112 0
FLAG -208 512 0
FLAG 352 528 OUT2
FLAG -96 512 IN2
FLAG 240 496 +V
FLAG 240 560 -V
FLAG 176 656 0
FLAG -160 992 0
FLAG -48 992 IN3
FLAG 288 976 +V
FLAG 288 1040 -V
FLAG 224 1136 0
FLAG 784 1024 OUT3
FLAG 672 992 +V
FLAG 672 1056 -V
FLAG 608 1152 0
SYMBOL voltage -96 0 R90
WINDOW 123 24 146 Left 2
WINDOW 39 24 125 Left 2
WINDOW 3 24 44 Left 2
SYMATTR InstName Vin1
SYMATTR Value SINE(0 10m 100)
SYMBOL AD712 240 -48 R0
SYMATTR InstName U1
SYMBOL res 176 -112 M90
WINDOW 0 0 56 VBottom 2
WINDOW 3 32 56 VTop 2
SYMATTR InstName R1
SYMATTR Value 100k
SYMBOL res 64 -16 R90
WINDOW 0 0 56 VBottom 2
WINDOW 3 32 56 VTop 2
SYMATTR InstName R2
SYMATTR Value 10k
SYMBOL res 160 48 R0
SYMATTR InstName R3
SYMATTR Value 10k
SYMBOL voltage 496 0 R0
WINDOW 123 0 0 Left 2
WINDOW 39 0 0 Left 2
SYMATTR InstName V1
SYMATTR Value 15
SYMBOL voltage 608 0 R0
WINDOW 123 24 146 Left 2
WINDOW 39 24 125 Left 2
SYMATTR InstName V2
SYMATTR Value -15
SYMBOL cap 272 -192 R90
WINDOW 0 0 32 VBottom 2
WINDOW 3 32 32 VTop 2
SYMATTR InstName C1
SYMATTR Value 0.1µ
SYMBOL voltage -96 512 R90
WINDOW 123 24 146 Left 2
WINDOW 39 24 125 Left 2
WINDOW 3 24 44 Left 2
SYMATTR InstName Vin2
SYMATTR Value SINE(0 10m 100)
SYMBOL AD712 240 464 R0
SYMATTR InstName U2
SYMBOL res 176 400 M90
WINDOW 0 0 56 VBottom 2
WINDOW 3 32 56 VTop 2
SYMATTR InstName R4
SYMATTR Value 10k
SYMBOL res 64 496 R90
WINDOW 0 0 56 VBottom 2
WINDOW 3 32 56 VTop 2
SYMATTR InstName R5
SYMATTR Value 10k
SYMBOL res 160 560 R0
SYMATTR InstName R6
SYMATTR Value 10k
SYMBOL cap 128 496 R90
WINDOW 0 0 32 VBottom 2
WINDOW 3 32 32 VTop 2
SYMATTR InstName C2
SYMATTR Value 0.22µ
SYMBOL voltage -48 992 R90
WINDOW 123 24 146 Left 2
WINDOW 39 24 125 Left 2
WINDOW 3 24 44 Left 2
SYMATTR InstName Vin3
SYMATTR Value SINE(0 10m 100)
SYMBOL AD712 288 944 R0
SYMATTR InstName U3
SYMBOL res 224 880 M90
WINDOW 0 0 56 VBottom 2
WINDOW 3 32 56 VTop 2
SYMATTR InstName R7
SYMATTR Value 100k
SYMBOL res 112 976 R90
WINDOW 0 0 56 VBottom 2
WINDOW 3 32 56 VTop 2
SYMATTR InstName R8
SYMATTR Value 10k
SYMBOL res 208 1040 R0
SYMATTR InstName R9
SYMATTR Value 10k
SYMBOL cap 320 800 R90
WINDOW 0 0 32 VBottom 2
WINDOW 3 32 32 VTop 2
SYMATTR InstName C3
SYMATTR Value 0.1µ
SYMBOL AD712 672 960 R0
SYMATTR InstName U4
SYMBOL res 608 896 M90
WINDOW 0 0 56 VBottom 2
WINDOW 3 32 56 VTop 2
SYMATTR InstName R10
SYMATTR Value 10k
SYMBOL res 496 992 R90
WINDOW 0 0 56 VBottom 2
WINDOW 3 32 56 VTop 2
SYMATTR InstName R11
SYMATTR Value 10k
SYMBOL res 592 1056 R0
SYMATTR InstName R12
SYMATTR Value 10k
SYMBOL cap 560 992 R90
WINDOW 0 0 32 VBottom 2
WINDOW 3 32 32 VTop 2
SYMATTR InstName C4
SYMATTR Value 0.22µ
TEXT 56 240 Left 2 !.tran 0 1 0.9 1m
