Version 4.1
SHEET 1 880 2144
WIRE 208 -176 192 -176
WIRE 304 -176 272 -176
WIRE 192 -96 192 -176
WIRE 304 -96 304 -176
WIRE 304 -96 272 -96
WIRE -192 0 -208 0
WIRE -96 0 -112 0
WIRE -32 0 -96 0
WIRE 192 0 192 -96
WIRE 192 0 48 0
WIRE 208 0 192 0
WIRE 304 16 304 -96
WIRE 304 16 272 16
WIRE 352 16 304 16
WIRE 496 16 496 0
WIRE 608 16 608 0
WIRE 208 32 176 32
WIRE 176 64 176 32
WIRE 496 112 496 96
WIRE 608 112 608 96
WIRE 336 752 304 752
WIRE -160 848 -176 848
WIRE -64 848 -80 848
WIRE 0 848 -64 848
WIRE 96 848 80 848
WIRE 224 848 224 752
WIRE 224 848 160 848
WIRE 240 848 224 848
WIRE 336 864 336 752
WIRE 336 864 304 864
WIRE 384 864 336 864
WIRE 240 880 208 880
WIRE 208 912 208 880
WIRE 80 1568 64 1568
WIRE 176 1568 144 1568
WIRE 64 1648 64 1568
WIRE 176 1648 176 1568
WIRE 176 1648 144 1648
WIRE 560 1664 528 1664
WIRE -320 1744 -336 1744
WIRE -224 1744 -240 1744
WIRE -160 1744 -224 1744
WIRE 64 1744 64 1648
WIRE 64 1744 -80 1744
WIRE 80 1744 64 1744
WIRE 176 1760 176 1648
WIRE 176 1760 144 1760
WIRE 224 1760 176 1760
WIRE 320 1760 304 1760
WIRE 448 1760 448 1664
WIRE 448 1760 384 1760
WIRE 464 1760 448 1760
WIRE 80 1776 48 1776
WIRE 560 1776 560 1664
WIRE 560 1776 528 1776
WIRE 608 1776 560 1776
WIRE 464 1792 432 1792
WIRE 48 1808 48 1776
WIRE 432 1824 432 1792
FLAG -208 0 0
FLAG 352 16 OUT
FLAG -96 0 IN1
FLAG 240 -16 +V
FLAG 240 48 -V
FLAG 176 144 0
FLAG 496 0 +V
FLAG 496 112 0
FLAG 608 0 -V
FLAG 608 112 0
FLAG -176 848 0
FLAG 384 864 OUT2
FLAG -64 848 IN2
FLAG 272 832 +V
FLAG 272 896 -V
FLAG 208 992 0
FLAG -336 1744 0
FLAG -224 1744 IN3
FLAG 112 1728 +V
FLAG 112 1792 -V
FLAG 48 1888 0
FLAG 608 1776 OUT3
FLAG 496 1744 +V
FLAG 496 1808 -V
FLAG 432 1904 0
SYMBOL voltage -96 0 R90
WINDOW 123 24 146 Left 2
WINDOW 39 24 125 Left 2
WINDOW 3 24 44 Left 2
SYMATTR Value PULSE(-1 1 0 1n 1n 2m 4m 100)
SYMATTR InstName Vin1
SYMBOL AD712 240 -48 R0
SYMATTR InstName U1
SYMBOL res 176 -112 M90
WINDOW 0 0 56 VBottom 2
WINDOW 3 32 56 VTop 2
SYMATTR InstName R1
SYMATTR Value 100k
SYMBOL res 64 -16 R90
WINDOW 0 0 56 VBottom 2
WINDOW 3 32 56 VTop 2
SYMATTR InstName R2
SYMATTR Value 10k
SYMBOL res 160 48 R0
SYMATTR InstName R3
SYMATTR Value 10k
SYMBOL voltage 496 0 R0
WINDOW 123 0 0 Left 2
WINDOW 39 0 0 Left 2
SYMATTR InstName V1
SYMATTR Value 15
SYMBOL voltage 608 0 R0
WINDOW 123 24 146 Left 2
WINDOW 39 24 125 Left 2
SYMATTR InstName V2
SYMATTR Value -15
SYMBOL cap 272 -192 R90
WINDOW 0 0 32 VBottom 2
WINDOW 3 32 32 VTop 2
SYMATTR InstName C1
SYMATTR Value 0.1µ
SYMBOL AD712 272 800 R0
SYMATTR InstName U2
SYMBOL res 208 736 M90
WINDOW 0 0 56 VBottom 2
WINDOW 3 32 56 VTop 2
SYMATTR InstName R4
SYMATTR Value 10k
SYMBOL res 96 832 R90
WINDOW 0 0 56 VBottom 2
WINDOW 3 32 56 VTop 2
SYMATTR InstName R5
SYMATTR Value 10k
SYMBOL res 192 896 R0
SYMATTR InstName R6
SYMATTR Value 10k
SYMBOL cap 160 832 R90
WINDOW 0 0 32 VBottom 2
WINDOW 3 32 32 VTop 2
SYMATTR InstName C2
SYMATTR Value 0.22µ
SYMBOL AD712 112 1696 R0
SYMATTR InstName U3
SYMBOL res 48 1632 M90
WINDOW 0 0 56 VBottom 2
WINDOW 3 32 56 VTop 2
SYMATTR InstName R7
SYMATTR Value 100k
SYMBOL res -64 1728 R90
WINDOW 0 0 56 VBottom 2
WINDOW 3 32 56 VTop 2
SYMATTR InstName R8
SYMATTR Value 10k
SYMBOL res 32 1792 R0
SYMATTR InstName R9
SYMATTR Value 10k
SYMBOL cap 144 1552 R90
WINDOW 0 0 32 VBottom 2
WINDOW 3 32 32 VTop 2
SYMATTR InstName C3
SYMATTR Value 0.1µ
SYMBOL AD712 496 1712 R0
SYMATTR InstName U4
SYMBOL res 432 1648 M90
WINDOW 0 0 56 VBottom 2
WINDOW 3 32 56 VTop 2
SYMATTR InstName R10
SYMATTR Value 10k
SYMBOL res 320 1744 R90
WINDOW 0 0 56 VBottom 2
WINDOW 3 32 56 VTop 2
SYMATTR InstName R11
SYMATTR Value 10k
SYMBOL res 416 1808 R0
SYMATTR InstName R12
SYMATTR Value 10k
SYMBOL cap 384 1744 R90
WINDOW 0 0 32 VBottom 2
WINDOW 3 32 32 VTop 2
SYMATTR InstName C4
SYMATTR Value 0.22µ
SYMBOL voltage -64 848 R90
WINDOW 123 24 146 Left 2
WINDOW 39 24 125 Left 2
WINDOW 3 24 44 Left 2
SYMATTR Value PULSE(-1 1 0 1n 1n 2m 4m 100)
SYMATTR InstName Vin2
SYMBOL voltage -224 1744 R90
WINDOW 123 24 146 Left 2
WINDOW 39 24 125 Left 2
WINDOW 3 24 44 Left 2
SYMATTR Value PULSE(-1 1 0 1n 1n 2m 4m 100)
SYMATTR InstName Vin3
TEXT 56 240 Left 2 !.tran 0 0.1 0.09 1m
