Version 4.1
SHEET 1 880 724
WIRE 336 16 304 16
WIRE -64 112 -80 112
WIRE 32 112 16 112
WIRE 96 112 32 112
WIRE 224 112 224 16
WIRE 224 112 176 112
WIRE 240 112 224 112
WIRE 336 128 336 16
WIRE 336 128 304 128
WIRE 384 128 336 128
WIRE 528 128 528 112
WIRE 640 128 640 112
WIRE 240 144 208 144
WIRE 208 176 208 144
WIRE 528 224 528 208
WIRE 640 224 640 208
WIRE 352 464 320 464
WIRE 224 512 16 512
WIRE 224 560 224 512
WIRE 240 560 240 464
WIRE 240 560 224 560
WIRE 256 560 240 560
WIRE 352 576 352 464
WIRE 352 576 320 576
WIRE 400 576 352 576
WIRE -64 592 -80 592
WIRE 32 592 16 592
WIRE 96 592 32 592
WIRE 256 592 176 592
FLAG -80 112 0
FLAG 384 128 OUT
FLAG 32 112 IN
FLAG 272 96 +V
FLAG 272 160 -V
FLAG 208 256 0
FLAG 528 112 +V
FLAG 528 224 0
FLAG 640 112 -V
FLAG 640 224 0
FLAG -80 592 0
FLAG 400 576 OUT2
FLAG 32 592 IN2
FLAG 288 544 +V
FLAG 288 608 -V
FLAG -64 512 0
SYMBOL voltage 32 112 R90
WINDOW 123 24 146 Left 2
WINDOW 39 24 125 Left 2
SYMATTR InstName Vin1
SYMATTR Value ""
SYMBOL AD712 272 64 R0
SYMATTR InstName U1
SYMBOL res 208 0 M90
WINDOW 0 0 56 VBottom 2
WINDOW 3 32 56 VTop 2
SYMATTR InstName R2
SYMATTR Value 100k
SYMBOL res 192 96 R90
WINDOW 0 0 56 VBottom 2
WINDOW 3 32 56 VTop 2
SYMATTR InstName R3
SYMATTR Value 10k
SYMBOL res 192 160 R0
SYMATTR InstName R4
SYMATTR Value 10k
SYMBOL voltage 528 112 R0
WINDOW 123 0 0 Left 2
WINDOW 39 0 0 Left 2
SYMATTR InstName V1
SYMATTR Value 15
SYMBOL voltage 640 112 R0
WINDOW 123 24 146 Left 2
WINDOW 39 24 125 Left 2
SYMATTR InstName V2
SYMATTR Value -15
SYMBOL voltage 32 592 R90
WINDOW 123 24 146 Left 2
WINDOW 39 24 125 Left 2
SYMATTR InstName Vin2
SYMATTR Value ""
SYMBOL AD712 288 512 R0
SYMATTR InstName U2
SYMBOL res 224 448 M90
WINDOW 0 0 56 VBottom 2
WINDOW 3 32 56 VTop 2
SYMATTR InstName R1
SYMATTR Value 100k
SYMBOL res 192 576 R90
WINDOW 0 0 56 VBottom 2
WINDOW 3 32 56 VTop 2
SYMATTR InstName R5
SYMATTR Value 10k
SYMBOL res 32 496 R90
WINDOW 0 0 56 VBottom 2
WINDOW 3 32 56 VTop 2
SYMATTR InstName R6
SYMATTR Value 10k
TEXT 88 320 Left 2 !.dc Vin2 -3 3 0.5
