Version 4.1
SHEET 1 880 680
WIRE 192 32 160 32
WIRE -304 128 -320 128
WIRE -208 128 -224 128
WIRE -144 128 -208 128
WIRE 48 128 -64 128
WIRE 80 128 80 32
WIRE 80 128 48 128
WIRE 96 128 80 128
WIRE 192 144 192 32
WIRE 192 144 160 144
WIRE 240 144 192 144
WIRE 384 144 384 128
WIRE 496 144 496 128
WIRE 96 160 64 160
WIRE 64 192 64 160
WIRE -320 224 -336 224
WIRE -176 224 -240 224
WIRE -128 224 -176 224
WIRE 48 224 48 128
WIRE 48 224 -48 224
WIRE 384 240 384 224
WIRE 496 240 496 224
FLAG -320 128 0
FLAG 240 144 OUT
FLAG -208 128 IN1
FLAG 128 112 +V
FLAG 128 176 -V
FLAG 64 272 0
FLAG 384 128 +V
FLAG 384 240 0
FLAG 496 128 -V
FLAG 496 240 0
FLAG -336 224 0
FLAG -176 224 IN2
SYMBOL voltage -208 128 R90
WINDOW 123 24 146 Left 2
WINDOW 39 24 125 Left 2
SYMATTR InstName Vin1
SYMATTR Value ""
SYMBOL AD712 128 80 R0
SYMATTR InstName U1
SYMBOL res 64 16 M90
WINDOW 0 0 56 VBottom 2
WINDOW 3 32 56 VTop 2
SYMATTR InstName R1
SYMATTR Value 100k
SYMBOL res -48 112 R90
WINDOW 0 0 56 VBottom 2
WINDOW 3 32 56 VTop 2
SYMATTR InstName R2
SYMATTR Value 10k
SYMBOL res 48 176 R0
SYMATTR InstName R3
SYMATTR Value 10k
SYMBOL voltage 384 128 R0
WINDOW 123 0 0 Left 2
WINDOW 39 0 0 Left 2
SYMATTR InstName V1
SYMATTR Value 15
SYMBOL voltage 496 128 R0
WINDOW 123 24 146 Left 2
WINDOW 39 24 125 Left 2
SYMATTR InstName V2
SYMATTR Value -15
SYMBOL res -32 208 R90
WINDOW 0 0 56 VBottom 2
WINDOW 3 32 56 VTop 2
SYMATTR InstName R4
SYMATTR Value 10k
SYMBOL voltage -224 224 R90
WINDOW 123 24 146 Left 2
WINDOW 39 24 125 Left 2
WINDOW 3 24 44 Left 2
SYMATTR Value 0.2
SYMATTR InstName Vin2
TEXT -56 336 Left 2 !.dc Vin1 list 0.3 -0.3 0
