Version 4.1
SHEET 1 1716 680
WIRE 1536 -240 1536 -256
WIRE 1648 -240 1648 -256
WIRE 1536 -144 1536 -160
WIRE 1648 -144 1648 -160
WIRE 480 32 368 32
WIRE 368 128 368 32
WIRE 384 128 368 128
WIRE 480 144 480 32
WIRE 480 144 448 144
WIRE 512 144 480 144
WIRE 528 144 512 144
WIRE 384 160 272 160
WIRE 272 176 272 160
WIRE 512 208 512 144
WIRE 272 272 272 256
FLAG 1536 -256 +V
FLAG 1536 -144 0
FLAG 272 272 0
FLAG 528 144 OUT
FLAG 272 160 IN
FLAG 416 112 +V
FLAG 1648 -256 -V
FLAG 416 176 -V
FLAG 1648 -144 0
FLAG 512 288 0
SYMBOL voltage 1536 -256 R0
WINDOW 123 0 0 Left 2
WINDOW 39 0 0 Left 2
SYMATTR InstName V1
SYMATTR Value 15
SYMBOL voltage 272 160 R0
WINDOW 123 24 146 Left 2
WINDOW 39 24 125 Left 2
SYMATTR InstName Vin1
SYMATTR Value ""
SYMBOL voltage 1648 -256 R0
WINDOW 123 24 146 Left 2
WINDOW 39 24 125 Left 2
SYMATTR InstName V2
SYMATTR Value -15
SYMBOL AD712 416 80 R0
SYMATTR InstName U2
SYMBOL res 496 192 R0
SYMATTR InstName R1
SYMATTR Value 5.1k
TEXT 232 336 Left 2 !.dc Vin1 -2 2 0.5
