Version 4.1
SHEET 1 880 1480
WIRE 192 0 160 0
WIRE 80 96 80 0
WIRE 80 96 -64 96
WIRE 96 96 80 96
WIRE 192 112 192 0
WIRE 192 112 160 112
WIRE 224 112 192 112
WIRE 240 112 224 112
WIRE 384 112 384 96
WIRE 496 112 496 96
WIRE 96 128 64 128
WIRE -368 176 -384 176
WIRE -272 176 -288 176
WIRE -208 176 -272 176
WIRE -112 176 -128 176
WIRE -64 176 -112 176
WIRE 64 176 64 128
WIRE 64 176 16 176
WIRE 64 192 64 176
WIRE 384 208 384 192
WIRE 496 208 496 192
WIRE -112 288 -112 240
WIRE 224 288 224 112
WIRE 224 288 -112 288
WIRE 160 544 128 544
WIRE 48 640 48 544
WIRE 48 640 -96 640
WIRE 64 640 48 640
WIRE 160 656 160 544
WIRE 160 656 128 656
WIRE 192 656 160 656
WIRE 208 656 192 656
WIRE 64 672 32 672
WIRE -448 720 -464 720
WIRE -352 720 -368 720
WIRE -288 720 -352 720
WIRE -160 720 -224 720
WIRE -80 720 -160 720
WIRE 32 720 32 672
WIRE 32 720 -16 720
WIRE 32 736 32 720
WIRE -160 832 -160 800
WIRE 192 832 192 656
WIRE 192 832 -160 832
WIRE 208 1008 176 1008
WIRE 96 1104 96 1008
WIRE 96 1104 -48 1104
WIRE 112 1104 96 1104
WIRE 208 1120 208 1008
WIRE 208 1120 176 1120
WIRE 240 1120 208 1120
WIRE 256 1120 240 1120
WIRE 112 1136 80 1136
WIRE -352 1184 -368 1184
WIRE -256 1184 -272 1184
WIRE -208 1184 -256 1184
WIRE -192 1184 -208 1184
WIRE -96 1184 -112 1184
WIRE -48 1184 -96 1184
WIRE 80 1184 80 1136
WIRE 80 1184 32 1184
WIRE -96 1296 -96 1248
WIRE 240 1296 240 1120
WIRE -208 1392 -208 1184
WIRE -192 1392 -208 1392
WIRE -64 1392 -128 1392
WIRE 0 1392 -64 1392
WIRE 80 1392 80 1184
WIRE 80 1392 64 1392
WIRE -64 1472 -64 1392
WIRE 240 1472 240 1376
WIRE 240 1472 -64 1472
FLAG -384 176 0
FLAG 240 112 OUT
FLAG -272 176 IN1
FLAG 128 80 +V
FLAG 128 144 -V
FLAG -144 96 0
FLAG 384 96 +V
FLAG 384 208 0
FLAG 496 96 -V
FLAG 496 208 0
FLAG 64 256 0
FLAG -464 720 0
FLAG 208 656 OUT2
FLAG -352 720 IN2
FLAG 96 624 +V
FLAG 96 688 -V
FLAG -176 640 0
FLAG 32 816 0
FLAG -368 1184 0
FLAG 256 1120 OUT3
FLAG -256 1184 IN3
FLAG 144 1088 +V
FLAG 144 1152 -V
FLAG -128 1104 0
FLAG -96 1296 0
SYMBOL voltage -272 176 R90
WINDOW 123 24 72 Left 2
WINDOW 39 24 125 Left 2
WINDOW 3 24 44 Left 2
SYMATTR Value2 AC 1
SYMATTR InstName Vin1
SYMATTR Value ""
SYMBOL AD712 128 48 R0
SYMATTR InstName U1
SYMBOL res 64 -16 M90
WINDOW 0 0 56 VBottom 2
WINDOW 3 32 56 VTop 2
SYMATTR InstName R1
SYMATTR Value 5.7k
SYMBOL res -112 160 R90
WINDOW 0 0 56 VBottom 2
WINDOW 3 32 56 VTop 2
SYMATTR InstName R2
SYMATTR Value 20k
SYMBOL res -48 80 R90
WINDOW 0 0 56 VBottom 2
WINDOW 3 32 56 VTop 2
SYMATTR InstName R3
SYMATTR Value 10k
SYMBOL voltage 384 96 R0
WINDOW 123 0 0 Left 2
WINDOW 39 0 0 Left 2
SYMATTR InstName V1
SYMATTR Value 15
SYMBOL voltage 496 96 R0
WINDOW 123 24 146 Left 2
WINDOW 39 24 125 Left 2
SYMATTR InstName V2
SYMATTR Value -15
SYMBOL res 32 160 R90
WINDOW 0 0 56 VBottom 2
WINDOW 3 32 56 VTop 2
SYMATTR InstName R4
SYMATTR Value 20k
SYMBOL cap 48 192 R0
SYMATTR InstName C2
SYMATTR Value 0.2µ
SYMBOL cap -128 176 R0
SYMATTR InstName C3
SYMATTR Value 0.2µ
SYMBOL voltage -352 720 R90
WINDOW 123 24 72 Left 2
WINDOW 39 24 125 Left 2
WINDOW 3 24 44 Left 2
SYMATTR Value2 AC 1
SYMATTR InstName Vin2
SYMATTR Value ""
SYMBOL AD712 96 592 R0
SYMATTR InstName U2
SYMBOL res 32 528 M90
WINDOW 0 0 56 VBottom 2
WINDOW 3 32 56 VTop 2
SYMATTR InstName R5
SYMATTR Value 5.7k
SYMBOL res -144 816 R180
WINDOW 0 36 76 Left 2
WINDOW 3 36 40 Left 2
SYMATTR InstName R6
SYMATTR Value 10k
SYMBOL res -80 624 R90
WINDOW 0 0 56 VBottom 2
WINDOW 3 32 56 VTop 2
SYMATTR InstName R7
SYMATTR Value 10k
SYMBOL res 48 832 R180
WINDOW 0 36 76 Left 2
WINDOW 3 36 40 Left 2
SYMATTR InstName R8
SYMATTR Value 10k
SYMBOL cap -16 704 R90
WINDOW 0 0 32 VBottom 2
WINDOW 3 32 32 VTop 2
SYMATTR InstName C1
SYMATTR Value 0.1µ
SYMBOL cap -224 704 R90
WINDOW 0 0 32 VBottom 2
WINDOW 3 32 32 VTop 2
SYMATTR InstName C4
SYMATTR Value 0.1µ
SYMBOL voltage -256 1184 R90
WINDOW 123 24 72 Left 2
WINDOW 39 24 125 Left 2
WINDOW 3 24 44 Left 2
SYMATTR Value2 AC 1
SYMATTR InstName Vin3
SYMATTR Value ""
SYMBOL AD712 144 1056 R0
SYMATTR InstName U3
SYMBOL res 80 992 M90
WINDOW 0 0 56 VBottom 2
WINDOW 3 32 56 VTop 2
SYMATTR InstName R9
SYMATTR Value 5.7k
SYMBOL res -96 1168 R90
WINDOW 0 0 56 VBottom 2
WINDOW 3 32 56 VTop 2
SYMATTR InstName R10
SYMATTR Value 20k
SYMBOL res -32 1088 R90
WINDOW 0 0 56 VBottom 2
WINDOW 3 32 56 VTop 2
SYMATTR InstName R11
SYMATTR Value 10k
SYMBOL res 48 1168 R90
WINDOW 0 0 56 VBottom 2
WINDOW 3 32 56 VTop 2
SYMATTR InstName R12
SYMATTR Value 20k
SYMBOL cap -112 1184 R0
SYMATTR InstName C6
SYMATTR Value 0.2µ
SYMBOL cap 64 1376 R90
WINDOW 0 0 32 VBottom 2
WINDOW 3 32 32 VTop 2
SYMATTR InstName C7
SYMATTR Value 0.1µ
SYMBOL cap -128 1376 R90
WINDOW 0 0 32 VBottom 2
WINDOW 3 32 32 VTop 2
SYMATTR InstName C8
SYMATTR Value 0.1µ
SYMBOL res 224 1280 R0
SYMATTR InstName R13
SYMATTR Value 10k
TEXT -56 368 Left 2 !.ac lin 1000 1 500
