Version 4.1
SHEET 1 880 680
WIRE 208 -96 176 -96
WIRE -288 0 -304 0
WIRE -192 0 -208 0
WIRE -128 0 -192 0
WIRE 96 0 96 -96
WIRE 96 0 -48 0
WIRE 112 0 96 0
WIRE 208 16 208 -96
WIRE 208 16 176 16
WIRE 256 16 208 16
WIRE 400 16 400 0
WIRE 512 16 512 0
WIRE 80 32 -32 32
WIRE 112 32 80 32
WIRE 80 64 80 32
WIRE -304 96 -320 96
WIRE -160 96 -224 96
WIRE -112 96 -160 96
WIRE -32 96 -32 32
WIRE 400 112 400 96
WIRE 512 112 512 96
FLAG -304 0 0
FLAG 256 16 OUT
FLAG -192 0 IN1
FLAG 144 -16 +V
FLAG 144 48 -V
FLAG 80 144 0
FLAG 400 0 +V
FLAG 400 112 0
FLAG 512 0 -V
FLAG 512 112 0
FLAG -320 96 0
FLAG -160 96 IN2
SYMBOL voltage -192 0 R90
WINDOW 123 24 146 Left 2
WINDOW 39 24 125 Left 2
SYMATTR InstName Vin1
SYMATTR Value ""
SYMBOL AD712 144 -48 R0
SYMATTR InstName U1
SYMBOL res 80 -112 M90
WINDOW 0 0 56 VBottom 2
WINDOW 3 32 56 VTop 2
SYMATTR InstName R1
SYMATTR Value 100k
SYMBOL res -32 -16 R90
WINDOW 0 0 56 VBottom 2
WINDOW 3 32 56 VTop 2
SYMATTR InstName R2
SYMATTR Value 10k
SYMBOL res 64 48 R0
SYMATTR InstName R3
SYMATTR Value 10k
SYMBOL voltage 400 0 R0
WINDOW 123 0 0 Left 2
WINDOW 39 0 0 Left 2
SYMATTR InstName V1
SYMATTR Value 15
SYMBOL voltage 512 0 R0
WINDOW 123 24 146 Left 2
WINDOW 39 24 125 Left 2
SYMATTR InstName V2
SYMATTR Value -15
SYMBOL res -16 80 R90
WINDOW 0 0 56 VBottom 2
WINDOW 3 32 56 VTop 2
SYMATTR InstName R4
SYMATTR Value 10k
SYMBOL voltage -208 96 R90
WINDOW 123 24 146 Left 2
WINDOW 39 24 125 Left 2
WINDOW 3 24 44 Left 2
SYMATTR Value 1
SYMATTR InstName Vin2
TEXT -40 208 Left 2 !.dc Vin1 list 1 2 0.2 Vin2 list 0.5 1.8 -0.2
