Version 4.1
SHEET 1 1060 1128
WIRE 416 -112 128 -112
WIRE 768 -112 416 -112
WIRE 880 -112 768 -112
WIRE 128 -16 128 -112
WIRE 416 -16 416 -112
WIRE 768 48 768 -112
WIRE 128 80 128 64
WIRE 192 80 128 80
WIRE 416 80 416 64
WIRE 416 80 336 80
WIRE 128 112 128 80
WIRE 416 112 416 80
WIRE -80 160 -112 160
WIRE -32 160 -80 160
WIRE 48 160 -32 160
WIRE 64 160 48 160
WIRE 496 160 480 160
WIRE 528 160 496 160
WIRE 576 160 528 160
WIRE 128 272 128 208
WIRE 160 272 128 272
WIRE 224 272 160 272
WIRE 368 272 320 272
WIRE 416 272 416 208
WIRE 416 272 368 272
WIRE -80 336 -80 160
WIRE -80 336 -112 336
WIRE 576 336 576 160
WIRE 576 336 -80 336
WIRE 272 352 272 320
WIRE 384 400 336 400
WIRE 768 400 768 128
WIRE 768 400 384 400
WIRE 272 464 272 448
WIRE 768 464 768 400
WIRE 272 480 272 464
WIRE 272 592 272 560
WIRE 768 592 768 544
WIRE 768 592 272 592
WIRE 960 592 768 592
FLAG -32 240 0
FLAG 528 240 0
FLAG -112 160 Vi1
IOPIN -112 160 In
FLAG -112 336 Vi2
IOPIN -112 336 In
FLAG 192 80 Vc1
IOPIN 192 80 Out
FLAG 336 80 Vc2
IOPIN 336 80 Out
FLAG 960 -112 0
FLAG 1040 592 0
FLAG -80 336 0
FLAG 272 320 Vc3
FLAG 384 400 Vb3
FLAG 272 464 Ve3
FLAG 48 160 Vb1
FLAG 496 160 Vb2
FLAG 160 272 Ve1
FLAG 368 272 Ve2
SYMBOL npn 64 112 R0
SYMATTR InstName Q1
SYMATTR Value 2N2222
SYMBOL npn 480 112 M0
SYMATTR InstName Q2
SYMATTR Value 2N3391A
SYMBOL npn 336 352 M0
SYMATTR InstName Q3
SYMATTR Value 2N3904
SYMBOL res -48 144 R0
SYMATTR InstName R3
SYMATTR Value 510
SYMBOL res 512 144 R0
SYMATTR InstName R4
SYMATTR Value 510
SYMBOL res 112 -32 R0
SYMATTR InstName R5
SYMATTR Value 10k
SYMBOL res 400 -32 R0
SYMATTR InstName R6
SYMATTR Value 10k
SYMBOL res 752 448 R0
SYMATTR InstName R7
SYMATTR Value 13k
SYMBOL res 752 32 R0
SYMATTR InstName R8
SYMATTR Value 62k
SYMBOL res 256 464 R0
SYMATTR InstName R9
SYMATTR Value 3k
SYMBOL voltage 864 -112 R270
WINDOW 0 32 56 VTop 2
WINDOW 3 -32 56 VBottom 2
WINDOW 123 0 0 Left 0
WINDOW 39 0 0 Left 0
SYMATTR InstName V1
SYMATTR Value 12
SYMBOL voltage 944 592 R270
WINDOW 0 32 56 VTop 2
WINDOW 3 -32 56 VBottom 2
WINDOW 123 0 0 Left 0
WINDOW 39 0 0 Left 0
SYMATTR InstName V2
SYMATTR Value -12
SYMBOL potentiometer 320 272 R270
SYMATTR InstName U1
SYMATTR SpiceLine R=330
SYMATTR SpiceLine2 wiper={WiperVal}
TEXT -136 688 Left 2 !.op\n.param WiperVal=0.5\n.step param WiperVal 0 1 0.01\n\n.meas op Target_Wiper FIND WiperVal WHEN V(Vc1)-V(Vc2)=0
TEXT -136 832 Left 2 !.meas op Vc1_bal FIND V(Vc1) WHEN V(Vc1)-V(Vc2)=0\n.meas op Ve1_bal FIND V(Ve1) WHEN V(Vc1)-V(Vc2)=0\n \n.meas op Vc2_bal FIND V(Vc2) WHEN V(Vc1)-V(Vc2)=0\n.meas op Ve2_bal FIND V(Ve2) WHEN V(Vc1)-V(Vc2)=0\n \n.meas op Vc3_bal FIND V(Vc3) WHEN V(Vc1)-V(Vc2)=0\n.meas op Vb3_bal FIND V(Vb3) WHEN V(Vc1)-V(Vc2)=0\n.meas op Ve3_bal FIND V(Ve3) WHEN V(Vc1)-V(VC2)=0
