Version 4.1
SHEET 1 880 680
WIRE -448 -192 -736 -192
WIRE -96 -192 -448 -192
WIRE 16 -192 -96 -192
WIRE -736 -96 -736 -192
WIRE -448 -96 -448 -192
WIRE -96 -32 -96 -192
WIRE -736 0 -736 -16
WIRE -672 0 -736 0
WIRE -448 0 -448 -16
WIRE -448 0 -528 0
WIRE -736 32 -736 0
WIRE -448 32 -448 0
WIRE -944 80 -944 -32
WIRE -944 80 -976 80
WIRE -896 80 -944 80
WIRE -800 80 -896 80
WIRE -336 80 -384 80
WIRE -288 80 -336 80
WIRE -736 192 -736 128
WIRE -640 192 -736 192
WIRE -448 192 -448 128
WIRE -448 192 -544 192
WIRE -896 256 -976 256
WIRE -288 256 -288 80
WIRE -288 256 -896 256
WIRE -592 272 -592 240
WIRE -96 320 -96 48
WIRE -96 320 -528 320
WIRE -96 384 -96 320
WIRE -592 400 -592 368
WIRE -592 512 -592 480
WIRE -96 512 -96 464
WIRE -96 512 -592 512
WIRE 96 512 -96 512
FLAG -896 160 0
FLAG -336 160 0
FLAG -976 80 Vi1
IOPIN -976 80 In
FLAG -976 256 Vi2
IOPIN -976 256 In
FLAG -672 0 Vc1
IOPIN -672 0 Out
FLAG -528 0 Vc2
IOPIN -528 0 Out
FLAG 96 -192 0
FLAG 176 512 0
FLAG -944 -112 0
FLAG -896 256 0
SYMBOL npn -800 32 R0
SYMATTR InstName Q1
SYMATTR Value 2N2222
SYMBOL npn -384 32 M0
SYMATTR InstName Q2
SYMATTR Value 2N3391A
SYMBOL npn -528 272 M0
SYMATTR InstName Q3
SYMATTR Value 2N3904
SYMBOL res -912 64 R0
SYMATTR InstName R1
SYMATTR Value 510
SYMBOL res -352 64 R0
SYMATTR InstName R2
SYMATTR Value 510
SYMBOL res -752 -112 R0
SYMATTR InstName R3
SYMATTR Value 10k
SYMBOL res -464 -112 R0
SYMATTR InstName R4
SYMATTR Value 10k
SYMBOL res -112 368 R0
SYMATTR InstName R5
SYMATTR Value 13k
SYMBOL res -112 -48 R0
SYMATTR InstName R6
SYMATTR Value 62k
SYMBOL res -608 384 R0
SYMATTR InstName R7
SYMATTR Value 3k
SYMBOL voltage 0 -192 R270
WINDOW 0 32 56 VTop 2
WINDOW 3 -32 56 VBottom 2
WINDOW 123 0 0 Left 0
WINDOW 39 0 0 Left 0
SYMATTR InstName V1
SYMATTR Value 12
SYMBOL voltage 80 512 R270
WINDOW 0 32 56 VTop 2
WINDOW 3 -32 56 VBottom 2
WINDOW 123 0 0 Left 0
WINDOW 39 0 0 Left 0
SYMATTR InstName V2
SYMATTR Value -12
SYMBOL potentiometer -544 192 R270
SYMATTR InstName U1
SYMATTR SpiceLine R=330
SYMATTR SpiceLine2 wiper=0.5195
SYMBOL voltage -944 -16 R180
WINDOW 0 24 96 Left 2
WINDOW 3 24 16 Left 2
WINDOW 123 0 0 Left 0
WINDOW 39 0 0 Left 0
SYMATTR InstName V3
SYMATTR Value SINE(0 70m 1k)
TEXT -1032 344 Left 2 !.tran 0 1 0.9 1m
TEXT -1088 472 Left 2 !.meas TRAN Vc1_out PP V(Vc1)/2/sqrt(2)
TEXT -1080 536 Left 2 !.meas TRAN Vc2_out PP V(Vc2)/2/sqrt(2)
TEXT -1080 616 Left 2 !.meas TRAN Vd_out PP (V(Vc1)-V(Vc2))/2/sqrt(2)
