Version 4.1
SHEET 1 884 1616
WIRE 192 -160 -96 -160
WIRE 544 -160 192 -160
WIRE 656 -160 544 -160
WIRE -96 -64 -96 -160
WIRE 192 -64 192 -160
WIRE 544 0 544 -160
WIRE -96 32 -96 16
WIRE -32 32 -96 32
WIRE 192 32 192 16
WIRE 192 32 112 32
WIRE -96 64 -96 32
WIRE 192 64 192 32
WIRE -304 112 -304 0
WIRE -304 112 -336 112
WIRE -256 112 -304 112
WIRE -160 112 -256 112
WIRE 304 112 256 112
WIRE 352 112 304 112
WIRE -96 224 -96 160
WIRE 0 224 -96 224
WIRE 192 224 192 160
WIRE 192 224 96 224
WIRE -256 288 -336 288
WIRE 352 288 352 112
WIRE 352 288 -256 288
WIRE 48 304 48 272
WIRE 544 352 544 80
WIRE 544 352 112 352
WIRE 544 416 544 352
WIRE 48 432 48 400
WIRE 48 544 48 512
WIRE 544 544 544 496
WIRE 544 544 48 544
WIRE 736 544 544 544
WIRE 240 848 -48 848
WIRE 592 848 240 848
WIRE 704 848 592 848
WIRE -48 944 -48 848
WIRE 240 944 240 848
WIRE 592 1008 592 848
WIRE -48 1040 -48 1024
WIRE 16 1040 -48 1040
WIRE 240 1040 240 1024
WIRE 240 1040 160 1040
WIRE -48 1072 -48 1040
WIRE 240 1072 240 1040
WIRE -256 1120 -256 1008
WIRE -256 1120 -288 1120
WIRE -208 1120 -256 1120
WIRE -112 1120 -208 1120
WIRE 352 1120 304 1120
WIRE 400 1120 352 1120
WIRE -48 1232 -48 1168
WIRE 48 1232 -48 1232
WIRE 240 1232 240 1168
WIRE 240 1232 144 1232
WIRE -208 1296 -288 1296
WIRE 400 1296 400 1120
WIRE 400 1296 -208 1296
WIRE 96 1312 96 1280
WIRE 592 1360 592 1088
WIRE 592 1360 160 1360
WIRE 592 1424 592 1360
WIRE 96 1440 96 1408
WIRE 96 1552 96 1520
WIRE 592 1552 592 1504
WIRE 592 1552 96 1552
WIRE 784 1552 592 1552
FLAG -256 192 0
FLAG 304 192 0
FLAG -336 112 Vi1
IOPIN -336 112 In
FLAG -336 288 Vi2
IOPIN -336 288 In
FLAG -32 32 Vc1
IOPIN -32 32 Out
FLAG 112 32 Vc2
IOPIN 112 32 Out
FLAG 736 -160 0
FLAG 816 544 0
FLAG -304 -80 0
FLAG -256 288 0
FLAG -208 1200 0
FLAG 352 1200 0
FLAG -288 1120 Vi1
IOPIN -288 1120 In
FLAG -288 1296 Vi2
IOPIN -288 1296 In
FLAG 16 1040 Vc1
IOPIN 16 1040 Out
FLAG 160 1040 Vc2
IOPIN 160 1040 Out
FLAG 784 848 0
FLAG 864 1552 0
FLAG -256 928 0
FLAG -208 1296 0
SYMBOL npn -160 64 R0
SYMATTR InstName Q1
SYMATTR Value 2N2222
SYMBOL npn 256 64 M0
SYMATTR InstName Q2
SYMATTR Value 2N3391A
SYMBOL npn 112 304 M0
SYMATTR InstName Q3
SYMATTR Value 2N3904
SYMBOL res -272 96 R0
SYMATTR InstName R1
SYMATTR Value 510
SYMBOL res 288 96 R0
SYMATTR InstName R2
SYMATTR Value 510
SYMBOL res -112 -80 R0
SYMATTR InstName R3
SYMATTR Value 10k
SYMBOL res 176 -80 R0
SYMATTR InstName R4
SYMATTR Value 10k
SYMBOL res 528 400 R0
SYMATTR InstName R5
SYMATTR Value 13k
SYMBOL res 528 -16 R0
SYMATTR InstName R6
SYMATTR Value 62k
SYMBOL res 32 416 R0
SYMATTR InstName R7
SYMATTR Value 3k
SYMBOL voltage 640 -160 R270
WINDOW 0 32 56 VTop 2
WINDOW 3 -32 56 VBottom 2
WINDOW 123 0 0 Left 0
WINDOW 39 0 0 Left 0
SYMATTR InstName V1
SYMATTR Value 12
SYMBOL voltage 720 544 R270
WINDOW 0 32 56 VTop 2
WINDOW 3 -32 56 VBottom 2
WINDOW 123 0 0 Left 0
WINDOW 39 0 0 Left 0
SYMATTR InstName V2
SYMATTR Value -12
SYMBOL potentiometer 96 224 R270
SYMATTR InstName U1
SYMATTR SpiceLine R=330
SYMATTR SpiceLine2 wiper=0.5195
SYMBOL voltage -304 16 R180
WINDOW 0 24 96 Left 2
WINDOW 3 24 16 Left 2
WINDOW 123 0 0 Left 0
WINDOW 39 0 0 Left 0
SYMATTR InstName V3
SYMATTR Value {Vsin}
SYMBOL npn -112 1072 R0
SYMATTR InstName Q4
SYMATTR Value 2N2222
SYMBOL npn 304 1072 M0
SYMATTR InstName Q5
SYMATTR Value 2N3391A
SYMBOL npn 160 1312 M0
SYMATTR InstName Q6
SYMATTR Value 2N3904
SYMBOL res -224 1104 R0
SYMATTR InstName R8
SYMATTR Value 510
SYMBOL res 336 1104 R0
SYMATTR InstName R9
SYMATTR Value 510
SYMBOL res -64 928 R0
SYMATTR InstName R10
SYMATTR Value 10k
SYMBOL res 224 928 R0
SYMATTR InstName R11
SYMATTR Value 10k
SYMBOL res 576 1408 R0
SYMATTR InstName R12
SYMATTR Value 13k
SYMBOL res 576 992 R0
SYMATTR InstName R13
SYMATTR Value 62k
SYMBOL res 80 1424 R0
SYMATTR InstName R14
SYMATTR Value 3k
SYMBOL voltage 688 848 R270
WINDOW 0 32 56 VTop 2
WINDOW 3 -32 56 VBottom 2
WINDOW 123 0 0 Left 0
WINDOW 39 0 0 Left 0
SYMATTR InstName V4
SYMATTR Value 12
SYMBOL voltage 768 1552 R270
WINDOW 0 32 56 VTop 2
WINDOW 3 -32 56 VBottom 2
WINDOW 123 0 0 Left 0
WINDOW 39 0 0 Left 0
SYMATTR InstName V5
SYMATTR Value -12
SYMBOL potentiometer 144 1232 R270
SYMATTR InstName U2
SYMATTR SpiceLine R=330
SYMATTR SpiceLine2 wiper=0.5195
SYMBOL voltage -256 1024 R180
WINDOW 0 24 96 Left 2
WINDOW 3 24 16 Left 2
WINDOW 123 0 0 Left 0
WINDOW 39 0 0 Left 0
SYMATTR InstName V6
SYMATTR Value SINE(0 70.7m 1k)
