Version 4.1
SHEET 1 880 680
WIRE 0 -144 -240 -144
WIRE 112 -128 112 -208
WIRE 112 -128 64 -128
WIRE 128 -128 112 -128
WIRE 288 -128 208 -128
WIRE 0 -112 -48 -112
WIRE 288 -80 288 -128
WIRE 368 -80 288 -80
WIRE 480 -80 448 -80
WIRE -48 -16 -48 -112
WIRE 32 -16 -48 -16
WIRE 112 -16 112 -128
WIRE -48 0 -48 -16
WIRE 288 16 288 -80
WIRE 368 16 288 16
WIRE 480 32 480 -80
WIRE 480 32 432 32
WIRE 544 32 480 32
WIRE 368 48 320 48
WIRE -48 128 -48 80
WIRE 16 128 -48 128
WIRE 128 128 96 128
WIRE -48 208 -48 128
WIRE -16 208 -48 208
WIRE 128 224 128 128
WIRE 128 224 48 224
WIRE 320 224 320 48
WIRE 320 224 208 224
WIRE 384 224 320 224
WIRE 528 224 464 224
WIRE -16 240 -240 240
WIRE 128 352 128 224
WIRE 368 352 368 336
WIRE 480 352 480 336
WIRE 368 448 368 432
WIRE 480 448 480 432
FLAG 32 -96 +V
FLAG 32 -160 -V
FLAG 16 192 +V
FLAG 16 256 -V
FLAG 400 0 +V
FLAG 400 64 -V
FLAG 544 32 Vo
IOPIN 544 32 Out
FLAG 528 224 0
FLAG 112 -208 VA1
IOPIN 112 -208 Out
FLAG 128 352 VA2
IOPIN 128 352 Out
FLAG -240 240 0
FLAG 368 336 +V
FLAG 368 448 0
FLAG 480 336 -V
FLAG 480 448 0
FLAG -240 -224 0
SYMBOL res -64 -16 R0
SYMATTR InstName R1
SYMATTR Value 2k
SYMBOL res 224 -144 R90
WINDOW 0 0 56 VBottom 2
WINDOW 3 32 56 VTop 2
SYMATTR InstName R2
SYMATTR Value 1k
SYMBOL res 224 208 R90
WINDOW 0 0 56 VBottom 2
WINDOW 3 32 56 VTop 2
SYMATTR InstName R3
SYMATTR Value 1k
SYMBOL res 128 -32 R90
WINDOW 0 0 56 VBottom 2
WINDOW 3 32 56 VTop 2
SYMATTR InstName R4
SYMATTR Value 10k
SYMBOL res 112 112 R90
WINDOW 0 0 56 VBottom 2
WINDOW 3 32 56 VTop 2
SYMATTR InstName R5
SYMATTR Value 10k
SYMBOL res 464 -96 R90
WINDOW 0 0 56 VBottom 2
WINDOW 3 32 56 VTop 2
SYMATTR InstName R6
SYMATTR Value 1k
SYMBOL res 480 208 R90
WINDOW 0 0 56 VBottom 2
WINDOW 3 32 56 VTop 2
SYMATTR InstName R7
SYMATTR Value 1k
SYMBOL OpAmps\\ADA4077-4 16 160 R0
SYMATTR InstName U1
SYMBOL OpAmps\\ADA4077-4 400 -32 R0
SYMATTR InstName U2
SYMBOL OpAmps\\ADA4077-4 32 -64 M180
SYMATTR InstName U3
SYMBOL voltage 368 336 R0
WINDOW 123 0 0 Left 2
WINDOW 39 0 0 Left 2
SYMATTR InstName V1
SYMATTR Value 15
SYMBOL voltage 480 336 R0
WINDOW 123 24 146 Left 2
WINDOW 39 24 125 Left 2
SYMATTR InstName V2
SYMATTR Value -15
SYMBOL voltage -240 -128 R180
WINDOW 0 24 96 Left 2
WINDOW 3 24 16 Left 2
WINDOW 123 0 0 Left 0
WINDOW 39 0 0 Left 0
SYMATTR InstName V3
SYMATTR Value {Vin}
TEXT -648 -40 Left 2 !.tran 0 1 0.9 1m
TEXT -656 24 Left 2 !.meas TRAN VA1_out AVG V(VA1)
TEXT -664 96 Left 2 !.meas TRAN VA2_out AVG V(VA2)\n.meas TRAN Vo_out AVG V(Vo)
TEXT -656 -8 Left 2 !.step param Vin -0.1 0.1 0.2
