Version 4.1
SHEET 1 880 680
WIRE -1024 -416 -1056 -416
WIRE -784 -416 -1024 -416
WIRE -672 -400 -672 -480
WIRE -672 -400 -720 -400
WIRE -656 -400 -672 -400
WIRE -496 -400 -576 -400
WIRE -784 -384 -832 -384
WIRE -496 -352 -496 -400
WIRE -416 -352 -496 -352
WIRE -304 -352 -336 -352
WIRE -832 -288 -832 -384
WIRE -752 -288 -832 -288
WIRE -672 -288 -672 -400
WIRE -832 -272 -832 -288
WIRE -496 -256 -496 -352
WIRE -416 -256 -496 -256
WIRE -304 -240 -304 -352
WIRE -304 -240 -352 -240
WIRE -240 -240 -304 -240
WIRE -416 -224 -464 -224
WIRE -832 -144 -832 -192
WIRE -768 -144 -832 -144
WIRE -656 -144 -688 -144
WIRE -832 -64 -832 -144
WIRE -800 -64 -832 -64
WIRE -656 -48 -656 -144
WIRE -656 -48 -736 -48
WIRE -464 -48 -464 -224
WIRE -464 -48 -576 -48
WIRE -400 -48 -464 -48
WIRE -256 -48 -320 -48
WIRE -1024 -32 -1072 -32
WIRE -800 -32 -1024 -32
WIRE -656 80 -656 -48
WIRE 128 192 128 176
WIRE 240 192 240 176
WIRE 128 288 128 272
WIRE 240 288 240 272
FLAG 128 176 +V
FLAG 128 288 0
FLAG -752 -368 +V
FLAG 240 176 -V
FLAG -752 -432 -V
FLAG 240 288 0
FLAG -768 -80 +V
FLAG -768 -16 -V
FLAG -384 -272 +V
FLAG -384 -208 -V
FLAG -240 -240 Vo
IOPIN -240 -240 Out
FLAG -256 -48 0
FLAG -672 -480 VA1
IOPIN -672 -480 Out
FLAG -656 80 VA2
IOPIN -656 80 Out
FLAG -1024 -496 0
FLAG -1024 48 0
FLAG -1072 -32 Vi2
IOPIN -1072 -32 In
FLAG -1056 -416 Vi1
IOPIN -1056 -416 In
SYMBOL voltage 128 176 R0
WINDOW 123 0 0 Left 2
WINDOW 39 0 0 Left 2
SYMATTR InstName V1
SYMATTR Value 15
SYMBOL voltage 240 176 R0
WINDOW 123 24 146 Left 2
WINDOW 39 24 125 Left 2
SYMATTR InstName V2
SYMATTR Value -15
SYMBOL AD712 -752 -336 M180
SYMATTR InstName U1
SYMBOL AD712 -768 -112 R0
SYMATTR InstName U2
SYMBOL AD712 -384 -304 R0
SYMATTR InstName U3
SYMBOL res -848 -288 R0
SYMATTR InstName R1
SYMATTR Value {RG}
SYMBOL res -560 -416 R90
WINDOW 0 0 56 VBottom 2
WINDOW 3 32 56 VTop 2
SYMATTR InstName R2
SYMATTR Value 1k
SYMBOL res -560 -64 R90
WINDOW 0 0 56 VBottom 2
WINDOW 3 32 56 VTop 2
SYMATTR InstName R3
SYMATTR Value 1k
SYMBOL res -656 -304 R90
WINDOW 0 0 56 VBottom 2
WINDOW 3 32 56 VTop 2
SYMATTR InstName R4
SYMATTR Value 10k
SYMBOL res -672 -160 R90
WINDOW 0 0 56 VBottom 2
WINDOW 3 32 56 VTop 2
SYMATTR InstName R5
SYMATTR Value 10k
SYMBOL res -320 -368 R90
WINDOW 0 0 56 VBottom 2
WINDOW 3 32 56 VTop 2
SYMATTR InstName R6
SYMATTR Value 1k
SYMBOL res -304 -64 R90
WINDOW 0 0 56 VBottom 2
WINDOW 3 32 56 VTop 2
SYMATTR InstName R7
SYMATTR Value 1k
SYMBOL voltage -1024 -400 R180
WINDOW 0 24 96 Left 2
WINDOW 3 -206 72 Left 2
WINDOW 123 0 0 Left 0
WINDOW 39 0 0 Left 0
SYMATTR InstName V3
SYMATTR Value {Vic + Vid/2}
SYMBOL voltage -1024 -48 R0
WINDOW 123 0 0 Left 0
WINDOW 39 0 0 Left 0
SYMATTR InstName V4
SYMATTR Value {Vic - Vid/2}
TEXT -1536 -336 Left 2 !.step param RG list 0.2k 1k 2k 10k 20k
