Version 4.1
SHEET 1 1592 680
WIRE 592 -256 416 -256
WIRE 912 -256 592 -256
WIRE 416 -176 416 -256
WIRE 592 -144 592 -256
WIRE 416 -48 416 -96
WIRE 592 -32 592 -64
WIRE 800 -32 592 -32
WIRE 992 -32 864 -32
WIRE 592 64 592 -32
WIRE 32 112 0 112
WIRE 176 112 112 112
WIRE 272 112 176 112
WIRE 416 112 416 32
WIRE 416 112 336 112
WIRE 528 112 416 112
WIRE 176 160 176 112
WIRE 416 160 416 112
WIRE 704 160 672 160
WIRE 800 160 800 112
WIRE 592 176 592 160
WIRE 672 176 672 160
WIRE 672 176 592 176
WIRE 176 272 176 240
WIRE 176 272 0 272
WIRE 416 272 416 240
WIRE 416 272 176 272
WIRE 592 272 592 256
WIRE 592 272 416 272
WIRE 704 272 704 224
WIRE 704 272 592 272
WIRE 800 272 800 240
WIRE 800 272 704 272
WIRE 912 272 800 272
FLAG 592 272 0
FLAG 912 -256 Vcc
FLAG 1280 -272 Vcc
FLAG 1280 -192 0
FLAG 992 -32 Vo
SYMBOL res 128 96 R90
WINDOW 0 0 56 VBottom 2
WINDOW 3 32 56 VTop 2
SYMATTR InstName R1
SYMATTR Value 5.1k
SYMBOL res 160 144 R0
SYMATTR InstName R2
SYMATTR Value 51
SYMBOL res 400 144 R0
SYMATTR InstName Rb2
SYMATTR Value 24k
SYMBOL res 400 -64 R0
SYMATTR InstName Rp
SYMATTR Value {Rp}
SYMBOL res 400 -192 R0
SYMATTR InstName Rb1
SYMATTR Value 51k
SYMBOL npn 528 64 R0
SYMATTR InstName Q1
SYMBOL res 576 160 R0
SYMATTR InstName Re
SYMATTR Value 1.8k
SYMBOL res 784 144 R0
SYMATTR InstName RL
SYMATTR Value 5.1k
SYMBOL res 576 -160 R0
SYMATTR InstName Rc
SYMATTR Value 5.1k
SYMBOL voltage 1280 -288 R0
WINDOW 123 0 0 Left 0
WINDOW 39 0 0 Left 0
SYMATTR InstName V1
SYMATTR Value 12
SYMBOL cap 336 96 R90
WINDOW 0 0 32 VBottom 2
WINDOW 3 32 32 VTop 2
SYMATTR InstName C1
SYMATTR Value 10µ
SYMATTR SpiceLine V=6.3 Irms=0 Rser=4 Lser=0 mfg="AVX" pn="TAJA106M006" type="Tantalum"
SYMBOL cap 800 -16 R270
WINDOW 0 32 32 VTop 2
WINDOW 3 0 32 VBottom 2
SYMATTR InstName C2
SYMATTR Value 10µ
SYMATTR SpiceLine V=6.3 Irms=0 Rser=4 Lser=0 mfg="AVX" pn="TAJA106M006" type="Tantalum"
SYMBOL cap 688 160 R0
SYMATTR Value 10µ
SYMATTR InstName Ce
SYMATTR SpiceLine V=6.3 Irms=0 Rser=4 Lser=0 mfg="AVX" pn="TAJA106M006" type="Tantalum"
TEXT 1224 -88 Left 2 !.tran 0 0.1 0 0.01
TEXT 1216 -40 Left 2 !.step param Rp 14k 15k 0.5k
