Version 4.1
SHEET 1 1064 1156
WIRE 128 -80 -48 -80
WIRE 448 -80 128 -80
WIRE -48 0 -48 -80
WIRE 128 32 128 -80
WIRE -48 128 -48 80
WIRE 128 144 128 112
WIRE 336 144 128 144
WIRE 480 144 400 144
WIRE 528 144 480 144
WIRE 128 240 128 144
WIRE -432 288 -464 288
WIRE -288 288 -352 288
WIRE -192 288 -288 288
WIRE -48 288 -48 208
WIRE -48 288 -128 288
WIRE 64 288 -48 288
WIRE 480 288 480 144
WIRE 480 288 336 288
WIRE -288 336 -288 288
WIRE -48 336 -48 288
WIRE 240 336 208 336
WIRE 336 336 336 288
WIRE 128 352 128 336
WIRE 208 352 208 336
WIRE 208 352 128 352
WIRE -48 448 -48 416
WIRE -48 448 -464 448
WIRE 128 448 128 432
WIRE 128 448 -48 448
WIRE 240 448 240 400
WIRE 240 448 128 448
WIRE 336 448 336 416
WIRE 336 448 240 448
WIRE 448 448 336 448
WIRE 112 608 -64 608
WIRE 432 608 112 608
WIRE -64 688 -64 608
WIRE 112 720 112 608
WIRE -64 816 -64 768
WIRE 112 832 112 800
WIRE 320 832 112 832
WIRE 512 832 384 832
WIRE 112 928 112 832
WIRE -448 976 -480 976
WIRE -304 976 -368 976
WIRE -208 976 -304 976
WIRE -64 976 -64 896
WIRE -64 976 -144 976
WIRE 48 976 -64 976
WIRE 464 976 320 976
WIRE -304 1024 -304 976
WIRE -64 1024 -64 976
WIRE 224 1024 192 1024
WIRE 320 1024 320 976
WIRE 112 1040 112 1024
WIRE 192 1040 192 1024
WIRE 192 1040 112 1040
WIRE -64 1136 -64 1104
WIRE -64 1136 -480 1136
WIRE 112 1136 112 1120
WIRE 112 1136 -64 1136
WIRE 224 1136 224 1088
WIRE 224 1136 112 1136
WIRE 320 1136 320 1104
WIRE 320 1136 224 1136
WIRE 432 1136 320 1136
FLAG 128 448 0
FLAG 448 -80 Vcc
FLAG 816 -96 Vcc
FLAG 816 -16 0
FLAG 528 144 Vo
FLAG -544 288 0
FLAG 112 1136 0
FLAG 432 608 Vcc
FLAG 512 832 Vo2
FLAG -560 976 0
SYMBOL res -336 272 R90
WINDOW 0 0 56 VBottom 2
WINDOW 3 32 56 VTop 2
SYMATTR InstName R1
SYMATTR Value 5.1k
SYMBOL res -304 320 R0
SYMATTR InstName R2
SYMATTR Value 51
SYMBOL res -64 320 R0
SYMATTR InstName Rb1
SYMATTR Value 24k
SYMBOL res -64 112 R0
SYMATTR InstName Rp1
SYMATTR Value 15k
SYMBOL res -64 -16 R0
SYMATTR InstName Rb2
SYMATTR Value 51k
SYMBOL npn 64 240 R0
SYMATTR InstName Q1
SYMBOL res 112 336 R0
SYMATTR InstName Re1
SYMATTR Value 1.8k
SYMBOL res 320 320 R0
SYMATTR InstName RL1
SYMATTR Value 5.1k
SYMBOL res 112 16 R0
SYMATTR InstName Rc1
SYMATTR Value 5.1k
SYMBOL voltage 816 -112 R0
WINDOW 123 0 0 Left 0
WINDOW 39 0 0 Left 0
SYMATTR InstName V1
SYMATTR Value 12
SYMBOL cap -128 272 R90
WINDOW 0 0 32 VBottom 2
WINDOW 3 32 32 VTop 2
SYMATTR InstName C1
SYMATTR Value 10µ
SYMATTR SpiceLine V=6.3 Irms=0 Rser=4 Lser=0 mfg="AVX" pn="TAJA106M006" type="Tantalum"
SYMBOL cap 336 160 R270
WINDOW 0 32 32 VTop 2
WINDOW 3 0 32 VBottom 2
SYMATTR InstName C2
SYMATTR Value 10µ
SYMATTR SpiceLine V=6.3 Irms=0 Rser=4 Lser=0 mfg="AVX" pn="TAJA106M006" type="Tantalum"
SYMBOL cap 224 336 R0
SYMATTR Value 10µ
SYMATTR InstName Ce1
SYMATTR SpiceLine V=6.3 Irms=0 Rser=4 Lser=0 mfg="AVX" pn="TAJA106M006" type="Tantalum"
SYMBOL voltage -448 288 R90
WINDOW 0 -32 56 VBottom 2
WINDOW 3 32 56 VTop 2
WINDOW 123 0 0 Left 0
WINDOW 39 0 0 Left 0
SYMATTR InstName V2
SYMATTR Value SINE(0 20m 1k)
SYMBOL res -352 960 R90
WINDOW 0 0 56 VBottom 2
WINDOW 3 32 56 VTop 2
SYMATTR InstName R3
SYMATTR Value 5.1k
SYMBOL res -320 1008 R0
SYMATTR InstName R4
SYMATTR Value 51
SYMBOL res -80 1008 R0
SYMATTR InstName Rb3
SYMATTR Value 24k
SYMBOL res -80 800 R0
SYMATTR InstName Rp2
SYMATTR Value 15k
SYMBOL res -80 672 R0
SYMATTR InstName Rb4
SYMATTR Value 51k
SYMBOL npn 48 928 R0
SYMATTR InstName Q2
SYMBOL res 96 1024 R0
SYMATTR InstName Re2
SYMATTR Value 1.8k
SYMBOL res 304 1008 R0
SYMATTR InstName RL2
SYMATTR Value 5.1k
SYMBOL res 96 704 R0
SYMATTR InstName Rc2
SYMATTR Value 5.1k
SYMBOL cap -144 960 R90
WINDOW 0 0 32 VBottom 2
WINDOW 3 32 32 VTop 2
SYMATTR InstName C3
SYMATTR Value 10µ
SYMATTR SpiceLine V=6.3 Irms=0 Rser=4 Lser=0 mfg="AVX" pn="TAJA106M006" type="Tantalum"
SYMBOL cap 320 848 R270
WINDOW 0 32 32 VTop 2
WINDOW 3 0 32 VBottom 2
SYMATTR InstName C4
SYMATTR Value 10µ
SYMATTR SpiceLine V=6.3 Irms=0 Rser=4 Lser=0 mfg="AVX" pn="TAJA106M006" type="Tantalum"
SYMBOL cap 208 1024 R0
SYMATTR Value 10µ
SYMATTR InstName Ce2
SYMATTR SpiceLine V=6.3 Irms=0 Rser=4 Lser=0 mfg="AVX" pn="TAJA106M006" type="Tantalum"
SYMBOL voltage -464 976 R90
WINDOW 0 -32 56 VBottom 2
WINDOW 3 32 56 VTop 2
WINDOW 123 0 0 Left 0
WINDOW 39 0 0 Left 0
SYMATTR InstName V3
SYMATTR Value SINE(0 20m 1k)
TEXT 736 208 Left 2 !.tran 01u 0.1 0.09 0.000001
TEXT 736 256 Left 2 !.meas Vsrms RMS V(Vo)
TEXT 736 296 Left 2 !.meas Virms RMS V(Vo2)
