Version 4.1
SHEET 1 972 680
WIRE 32 -160 -144 -160
WIRE 352 -160 32 -160
WIRE -144 -80 -144 -160
WIRE 32 -48 32 -160
WIRE -144 48 -144 0
WIRE 32 64 32 32
WIRE 240 64 32 64
WIRE 432 64 304 64
WIRE 32 160 32 64
WIRE -528 208 -560 208
WIRE -384 208 -448 208
WIRE -288 208 -384 208
WIRE -144 208 -144 128
WIRE -144 208 -224 208
WIRE -32 208 -144 208
WIRE -384 256 -384 208
WIRE -144 256 -144 208
WIRE 144 256 112 256
WIRE 240 256 240 208
WIRE 32 272 32 256
WIRE 112 272 112 256
WIRE 112 272 32 272
WIRE -384 368 -384 336
WIRE -384 368 -560 368
WIRE -144 368 -144 336
WIRE -144 368 -384 368
WIRE 32 368 32 352
WIRE 32 368 -144 368
WIRE 144 368 144 320
WIRE 144 368 32 368
WIRE 240 368 240 336
WIRE 240 368 144 368
WIRE 352 368 240 368
FLAG 32 368 0
FLAG 352 -160 Vcc
FLAG 720 -176 Vcc
FLAG 720 -96 0
FLAG 432 64 Vo
SYMBOL res -432 192 R90
WINDOW 0 0 56 VBottom 2
WINDOW 3 32 56 VTop 2
SYMATTR InstName R1
SYMATTR Value 5.1k
SYMBOL res -400 240 R0
SYMATTR InstName R2
SYMATTR Value 51
SYMBOL res -160 240 R0
SYMATTR InstName Rb1
SYMATTR Value 24k
SYMBOL res -160 32 R0
SYMATTR InstName Rp1
SYMATTR Value 28.5k
SYMBOL res -160 -96 R0
SYMATTR InstName Rb2
SYMATTR Value 51k
SYMBOL npn -32 160 R0
SYMATTR InstName Q1
SYMBOL res 16 256 R0
SYMATTR InstName Re1
SYMATTR Value 1.8k
SYMBOL res 224 240 R0
SYMATTR InstName RL1
SYMATTR Value 5.1k
SYMBOL res 16 -64 R0
SYMATTR InstName Rc1
SYMATTR Value 5.1k
SYMBOL voltage 720 -192 R0
WINDOW 123 0 0 Left 0
WINDOW 39 0 0 Left 0
SYMATTR InstName V1
SYMATTR Value 12
SYMBOL cap -224 192 R90
WINDOW 0 0 32 VBottom 2
WINDOW 3 32 32 VTop 2
SYMATTR InstName C1
SYMATTR Value 10µ
SYMATTR SpiceLine V=6.3 Irms=0 Rser=4 Lser=0 mfg="AVX" pn="TAJA106M006" type="Tantalum"
SYMBOL cap 240 80 R270
WINDOW 0 32 32 VTop 2
WINDOW 3 0 32 VBottom 2
SYMATTR InstName C2
SYMATTR Value 10µ
SYMATTR SpiceLine V=6.3 Irms=0 Rser=4 Lser=0 mfg="AVX" pn="TAJA106M006" type="Tantalum"
SYMBOL cap 128 256 R0
SYMATTR Value 10µ
SYMATTR InstName Ce1
SYMATTR SpiceLine V=6.3 Irms=0 Rser=4 Lser=0 mfg="AVX" pn="TAJA106M006" type="Tantalum"
TEXT 664 8 Left 2 !.tran 0 0.1 0 0.01
