Version 4.1
SHEET 1 1204 680
WIRE -112 -784 -448 -784
WIRE -448 -720 -448 -784
WIRE -320 -704 -336 -704
WIRE -224 -704 -240 -704
WIRE -208 -704 -224 -704
WIRE -112 -704 -112 -784
WIRE -112 -704 -128 -704
WIRE -224 -608 -224 -704
WIRE -208 -608 -224 -608
WIRE -112 -592 -112 -704
WIRE -112 -592 -144 -592
WIRE -64 -592 -112 -592
WIRE -208 -576 -448 -576
WIRE -448 -496 -448 -576
WIRE -448 -496 -496 -496
WIRE -400 -496 -448 -496
WIRE -496 -480 -496 -496
WIRE -400 -480 -400 -496
WIRE -496 -384 -496 -400
WIRE -448 -384 -496 -384
WIRE -400 -384 -400 -416
WIRE -400 -384 -448 -384
WIRE -448 -352 -448 -384
WIRE -112 -272 -448 -272
WIRE 1024 -224 1024 -240
WIRE 1136 -224 1136 -240
WIRE -448 -208 -448 -272
WIRE -320 -192 -336 -192
WIRE -224 -192 -240 -192
WIRE -208 -192 -224 -192
WIRE -112 -192 -112 -272
WIRE -112 -192 -128 -192
WIRE 1024 -128 1024 -144
WIRE 1136 -128 1136 -144
WIRE -224 -96 -224 -192
WIRE -208 -96 -224 -96
WIRE -112 -80 -112 -192
WIRE -112 -80 -144 -80
WIRE -64 -80 -112 -80
WIRE -208 -64 -448 -64
WIRE -448 16 -448 -64
WIRE -448 16 -496 16
WIRE -400 16 -448 16
WIRE -496 32 -496 16
WIRE -400 32 -400 16
WIRE -496 128 -496 112
WIRE -448 128 -496 128
WIRE -400 128 -400 96
WIRE -400 128 -448 128
WIRE -448 160 -448 128
WIRE 416 304 288 304
WIRE 544 304 496 304
WIRE 288 336 288 304
WIRE 544 416 544 304
WIRE 544 416 288 416
FLAG 1024 -240 +V
FLAG 1024 -128 0
FLAG -64 -592 OUT
FLAG -176 -624 +V
FLAG 1136 -240 -V
FLAG -176 -560 -V
FLAG -336 -704 0
FLAG 1136 -128 0
FLAG -448 -352 0
FLAG 288 416 0
FLAG -64 -80 OUT2
FLAG -176 -112 +V
FLAG -176 -48 -V
FLAG -336 -192 0
FLAG -448 160 0
SYMBOL voltage 1024 -240 R0
WINDOW 123 0 0 Left 2
WINDOW 39 0 0 Left 2
SYMATTR InstName V1
SYMATTR Value 15
SYMBOL res -224 -720 R90
WINDOW 0 0 56 VBottom 2
WINDOW 3 32 56 VTop 2
SYMATTR InstName R1
SYMATTR Value 2k
SYMBOL res -112 -720 R90
WINDOW 0 0 56 VBottom 2
WINDOW 3 32 56 VTop 2
SYMATTR InstName R2
SYMATTR Value 10k
SYMBOL voltage 1136 -240 R0
WINDOW 123 24 146 Left 2
WINDOW 39 24 125 Left 2
SYMATTR InstName V2
SYMATTR Value -15
SYMBOL AD712 -176 -656 R0
SYMATTR InstName U2
SYMBOL res -464 -736 R0
SYMATTR InstName R3
SYMATTR Value 10k
SYMBOL cap -464 -640 R0
SYMATTR InstName C1
SYMATTR Value 0.1µ
SYMBOL res -512 -496 R0
SYMATTR InstName R4
SYMATTR Value 10k
SYMBOL cap -416 -480 R0
SYMATTR InstName C2
SYMATTR Value 0.1µ
SYMBOL voltage 288 320 R0
WINDOW 123 0 0 Left 0
WINDOW 39 0 0 Left 0
SYMATTR InstName V3
SYMATTR Value SINE(0 1 100)
SYMBOL res 512 288 R90
WINDOW 0 0 56 VBottom 2
WINDOW 3 32 56 VTop 2
SYMATTR InstName R5
SYMATTR Value 10k
SYMBOL res -224 -208 R90
WINDOW 0 0 56 VBottom 2
WINDOW 3 32 56 VTop 2
SYMATTR InstName R6
SYMATTR Value 2k
SYMBOL res -112 -208 R90
WINDOW 0 0 56 VBottom 2
WINDOW 3 32 56 VTop 2
SYMATTR InstName R7
SYMATTR Value 10K
SYMBOL AD712 -176 -144 R0
SYMATTR InstName U1
SYMBOL res -464 -224 R0
SYMATTR InstName R8
SYMATTR Value 30k
SYMBOL cap -464 -128 R0
SYMATTR InstName C3
SYMATTR Value 0.1µ
SYMBOL res -512 16 R0
SYMATTR InstName R9
SYMATTR Value 30k
SYMBOL cap -416 32 R0
SYMATTR InstName C4
SYMATTR Value 0.1µ
TEXT -416 -896 Left 2 !.tran 0 1 0.9 1m
