Version 4.1
SHEET 1 880 804
WIRE 528 -272 528 -288
WIRE 640 -272 640 -288
WIRE -32 -176 -48 -176
WIRE 64 -176 48 -176
WIRE 80 -176 64 -176
WIRE 176 -176 176 -256
WIRE 176 -176 160 -176
WIRE 528 -176 528 -192
WIRE 640 -176 640 -192
WIRE 64 -80 64 -176
WIRE 80 -80 64 -80
WIRE 176 -64 176 -176
WIRE 176 -64 144 -64
WIRE 224 -64 176 -64
WIRE -176 -48 -224 -48
WIRE -48 -48 -96 -48
WIRE 80 -48 32 -48
WIRE 176 416 176 352
WIRE 176 640 176 560
WIRE 176 640 128 640
WIRE 224 640 176 640
WIRE 128 656 128 640
WIRE 224 656 224 640
WIRE 128 752 128 736
WIRE 176 752 128 752
WIRE 224 752 224 720
WIRE 224 752 176 752
WIRE 176 784 176 752
FLAG 528 -288 +V
FLAG 528 -176 0
FLAG 640 -288 -V
FLAG 640 -176 0
FLAG 224 -64 OUT
FLAG -48 -176 0
FLAG 176 784 0
FLAG -304 -48 0
SYMBOL voltage 528 -288 R0
WINDOW 123 0 0 Left 2
WINDOW 39 0 0 Left 2
SYMATTR InstName V1
SYMATTR Value 15
SYMBOL voltage 640 -288 R0
WINDOW 123 24 146 Left 2
WINDOW 39 24 125 Left 2
SYMATTR InstName V2
SYMATTR Value -15
SYMBOL res 64 -192 R90
WINDOW 0 0 56 VBottom 2
WINDOW 3 32 56 VTop 2
SYMATTR InstName R3
SYMATTR Value 2k
SYMBOL res 176 -192 R90
WINDOW 0 0 56 VBottom 2
WINDOW 3 32 56 VTop 2
SYMATTR InstName R4
SYMATTR Value 10K
SYMBOL AD712 112 -128 R0
SYMATTR InstName U1
SYMBOL res 160 400 R0
SYMATTR InstName R5
SYMATTR Value 30k
SYMBOL cap 160 496 R0
SYMATTR InstName C1
SYMATTR Value 0.1µ
SYMBOL res 112 640 R0
SYMATTR InstName R6
SYMATTR Value 30k
SYMBOL cap 208 656 R0
SYMATTR InstName C2
SYMATTR Value 0.1µ
SYMBOL res 48 -64 R90
WINDOW 0 0 56 VBottom 2
WINDOW 3 32 56 VTop 2
SYMATTR InstName R1
SYMATTR Value 10k
SYMBOL res -80 -64 R90
WINDOW 0 0 56 VBottom 2
WINDOW 3 32 56 VTop 2
SYMATTR InstName R2
SYMATTR Value 1k
SYMBOL voltage -208 -48 R90
WINDOW 0 -32 56 VBottom 2
WINDOW 3 -4 56 VBottom 2
WINDOW 123 0 0 Left 0
WINDOW 39 0 0 Left 0
SYMATTR InstName V3
SYMATTR Value SINE(0 1 53)
TEXT -224 200 Left 2 !.tran 0 1 0.9 1m
