Version 4.1
SHEET 1 1204 680
WIRE -112 -272 -448 -272
WIRE 576 -224 240 -224
WIRE 1024 -224 1024 -240
WIRE 1136 -224 1136 -240
WIRE -448 -208 -448 -272
WIRE -320 -192 -336 -192
WIRE -224 -192 -240 -192
WIRE -208 -192 -224 -192
WIRE -112 -192 -112 -272
WIRE -112 -192 -128 -192
WIRE 240 -160 240 -224
WIRE 368 -144 352 -144
WIRE 464 -144 448 -144
WIRE 480 -144 464 -144
WIRE 576 -144 576 -224
WIRE 576 -144 560 -144
WIRE 1024 -128 1024 -144
WIRE 1136 -128 1136 -144
WIRE -224 -96 -224 -192
WIRE -208 -96 -224 -96
WIRE -112 -80 -112 -192
WIRE -112 -80 -144 -80
WIRE -64 -80 -112 -80
WIRE -208 -64 -448 -64
WIRE 464 -48 464 -144
WIRE 480 -48 464 -48
WIRE 576 -32 576 -144
WIRE 576 -32 544 -32
WIRE 624 -32 576 -32
WIRE 480 -16 240 -16
WIRE -448 16 -448 -64
WIRE -448 16 -496 16
WIRE -400 16 -448 16
WIRE -496 32 -496 16
WIRE -400 32 -400 16
WIRE 240 64 240 -16
WIRE 240 64 192 64
WIRE 288 64 240 64
WIRE 192 80 192 64
WIRE 288 80 288 64
WIRE -496 128 -496 112
WIRE -448 128 -496 128
WIRE -400 128 -400 96
WIRE -400 128 -448 128
WIRE -448 160 -448 128
WIRE 192 176 192 160
WIRE 240 176 192 176
WIRE 288 176 288 144
WIRE 288 176 240 176
WIRE 240 208 240 176
WIRE 416 304 288 304
WIRE 544 304 496 304
WIRE 288 336 288 304
WIRE 544 416 544 304
WIRE 544 416 288 416
FLAG 1024 -240 +V
FLAG 1024 -128 0
FLAG 624 -32 OUT
FLAG 512 -64 +V
FLAG 1136 -240 -V
FLAG 512 0 -V
FLAG 352 -144 0
FLAG 1136 -128 0
FLAG 240 208 0
FLAG 288 416 0
FLAG -64 -80 OUT2
FLAG -176 -112 +V
FLAG -176 -48 -V
FLAG -336 -192 0
FLAG -448 160 0
SYMBOL voltage 1024 -240 R0
WINDOW 123 0 0 Left 2
WINDOW 39 0 0 Left 2
SYMATTR InstName V1
SYMATTR Value 15
SYMBOL res 464 -160 R90
WINDOW 0 0 56 VBottom 2
WINDOW 3 32 56 VTop 2
SYMATTR InstName R1
SYMATTR Value 2k
SYMBOL res 576 -160 R90
WINDOW 0 0 56 VBottom 2
WINDOW 3 32 56 VTop 2
SYMATTR InstName R2
SYMATTR Value 5k
SYMBOL voltage 1136 -240 R0
WINDOW 123 24 146 Left 2
WINDOW 39 24 125 Left 2
SYMATTR InstName V2
SYMATTR Value -15
SYMBOL AD712 512 -96 R0
SYMATTR InstName U2
SYMBOL res 224 -176 R0
SYMATTR InstName R3
SYMATTR Value 10k
SYMBOL cap 224 -80 R0
SYMATTR InstName C1
SYMATTR Value 0.1µ
SYMBOL res 176 64 R0
SYMATTR InstName R4
SYMATTR Value 10k
SYMBOL cap 272 80 R0
SYMATTR InstName C2
SYMATTR Value 0.1µ
SYMBOL voltage 288 320 R0
WINDOW 123 0 0 Left 0
WINDOW 39 0 0 Left 0
SYMATTR InstName V3
SYMATTR Value SINE(0 1 100)
SYMBOL res 512 288 R90
WINDOW 0 0 56 VBottom 2
WINDOW 3 32 56 VTop 2
SYMATTR InstName R5
SYMATTR Value 10k
SYMBOL res -224 -208 R90
WINDOW 0 0 56 VBottom 2
WINDOW 3 32 56 VTop 2
SYMATTR InstName R6
SYMATTR Value 2k
SYMBOL res -112 -208 R90
WINDOW 0 0 56 VBottom 2
WINDOW 3 32 56 VTop 2
SYMATTR InstName R7
SYMATTR Value 10K
SYMBOL AD712 -176 -144 R0
SYMATTR InstName U1
SYMBOL res -464 -224 R0
SYMATTR InstName R8
SYMATTR Value 30k
SYMBOL cap -464 -128 R0
SYMATTR InstName C3
SYMATTR Value 0.1µ
SYMBOL res -512 16 R0
SYMATTR InstName R9
SYMATTR Value 30k
SYMBOL cap -416 32 R0
SYMATTR InstName C4
SYMATTR Value 0.1µ
TEXT 272 -336 Left 2 !.tran 0 1 0.9 1m
