Version 4.1
SHEET 1 1364 1188
WIRE 1184 -208 1184 -224
WIRE 1296 -208 1296 -224
WIRE 1184 -112 1184 -128
WIRE 1296 -112 1296 -128
WIRE 96 0 -112 0
WIRE 240 0 160 0
WIRE 256 0 240 0
WIRE 352 0 336 0
WIRE 560 0 432 0
WIRE 240 96 240 0
WIRE 256 96 240 96
WIRE 400 112 320 112
WIRE 560 112 560 0
WIRE 560 112 480 112
WIRE 608 112 560 112
WIRE 640 112 608 112
WIRE 256 128 144 128
WIRE 608 176 608 112
WIRE -112 256 -112 0
WIRE -96 256 -112 256
WIRE 144 256 144 128
WIRE 144 256 -16 256
WIRE 144 272 144 256
WIRE 320 272 144 272
WIRE 560 272 560 112
WIRE 560 272 400 272
WIRE 144 864 -80 864
WIRE 160 864 144 864
WIRE 288 864 288 752
WIRE 288 864 240 864
WIRE 432 864 432 752
WIRE 464 864 432 864
WIRE 144 960 144 864
WIRE 160 960 144 960
WIRE 304 976 224 976
WIRE 464 976 464 864
WIRE 464 976 384 976
WIRE 512 976 464 976
WIRE 544 976 512 976
WIRE 160 992 48 992
WIRE 512 1040 512 976
WIRE -192 1120 -208 1120
WIRE 48 1120 48 992
WIRE 48 1120 -112 1120
WIRE 48 1136 48 1120
WIRE 224 1136 48 1136
WIRE 464 1136 464 976
WIRE 464 1136 304 1136
FLAG 1184 -224 +V
FLAG 1184 -112 0
FLAG 640 112 OUT
FLAG 288 80 +V
FLAG 1296 -224 -V
FLAG 288 144 -V
FLAG 1296 -112 0
FLAG -112 256 0
FLAG 608 304 0
FLAG 544 976 OUT2
FLAG 192 944 +V
FLAG 192 1008 -V
FLAG -208 1120 0
FLAG 512 1168 0
FLAG -144 864 0
SYMBOL voltage 1184 -224 R0
WINDOW 123 0 0 Left 2
WINDOW 39 0 0 Left 2
SYMATTR InstName V1
SYMATTR Value 15
SYMBOL res 352 -16 R90
WINDOW 0 0 56 VBottom 2
WINDOW 3 32 56 VTop 2
SYMATTR InstName R2
SYMATTR Value 10K
SYMBOL voltage 1296 -224 R0
WINDOW 123 24 146 Left 2
WINDOW 39 24 125 Left 2
SYMATTR InstName V2
SYMATTR Value -15
SYMBOL AD712 288 48 R0
SYMATTR InstName U2
SYMBOL res 448 -16 R90
WINDOW 0 0 56 VBottom 2
WINDOW 3 32 56 VTop 2
SYMATTR InstName R3
SYMATTR Value 100k
SYMBOL res 496 96 R90
WINDOW 0 0 56 VBottom 2
WINDOW 3 32 56 VTop 2
SYMATTR InstName R4
SYMATTR Value 5.1k
SYMBOL res 416 256 R90
WINDOW 0 0 56 VBottom 2
WINDOW 3 32 56 VTop 2
SYMATTR InstName R5
SYMATTR Value 10k
SYMBOL res 0 240 R90
WINDOW 0 0 56 VBottom 2
WINDOW 3 32 56 VTop 2
SYMATTR InstName R6
SYMATTR Value 10k
SYMBOL cap 160 -16 R90
WINDOW 0 0 32 VBottom 2
WINDOW 3 32 32 VTop 2
SYMATTR InstName C1
SYMATTR Value 0.1µ
SYMBOL diode 592 176 R0
SYMATTR InstName D3
SYMATTR Value UDZV6_2B
SYMATTR Description Diode
SYMATTR Type diode
SYMBOL diode 624 304 R180
WINDOW 0 24 64 Left 2
WINDOW 3 -123 6 Left 2
SYMATTR InstName D4
SYMATTR Value UDZV6_2B
SYMATTR Description Diode
SYMATTR Type diode
SYMBOL AD712 192 912 R0
SYMATTR InstName U1
SYMBOL res 400 960 R90
WINDOW 0 0 56 VBottom 2
WINDOW 3 32 56 VTop 2
SYMATTR InstName R9
SYMATTR Value 5.1k
SYMBOL res 320 1120 R90
WINDOW 0 0 56 VBottom 2
WINDOW 3 32 56 VTop 2
SYMATTR InstName R10
SYMATTR Value 10k
SYMBOL res -96 1104 R90
WINDOW 0 0 56 VBottom 2
WINDOW 3 32 56 VTop 2
SYMATTR InstName R11
SYMATTR Value 22k
SYMBOL cap -80 848 R90
WINDOW 0 0 32 VBottom 2
WINDOW 3 32 32 VTop 2
SYMATTR InstName C2
SYMATTR Value 0.1µ
SYMBOL diode 496 1040 R0
SYMATTR InstName D5
SYMATTR Value UDZV6_2B
SYMATTR Description Diode
SYMATTR Type diode
SYMBOL diode 528 1168 R180
WINDOW 0 24 64 Left 2
WINDOW 3 -123 6 Left 2
SYMATTR InstName D6
SYMATTR Value UDZV6_2B
SYMATTR Description Diode
SYMATTR Type diode
SYMBOL diode 352 736 R90
WINDOW 0 0 32 VBottom 2
WINDOW 3 32 32 VTop 2
SYMATTR InstName D7
SYMATTR Value 1N4148
SYMBOL diode 288 880 R270
WINDOW 0 32 32 VTop 2
WINDOW 3 0 32 VBottom 2
SYMATTR InstName D8
SYMATTR Value 1N4148
SYMBOL res 256 848 R90
WINDOW 0 0 56 VBottom 2
WINDOW 3 32 56 VTop 2
SYMATTR InstName R7
SYMATTR Value 2k
SYMBOL res 448 736 R90
WINDOW 0 0 56 VBottom 2
WINDOW 3 32 56 VTop 2
SYMATTR InstName R8
SYMATTR Value 10k
SYMBOL res 448 848 R90
WINDOW 0 0 56 VBottom 2
WINDOW 3 32 56 VTop 2
SYMATTR InstName R12
SYMATTR Value 50k
TEXT 168 392 Left 2 !.tran 0 1 0.9 1m
