Version 4.1
SHEET 1 1040 1824
WIRE 672 -240 672 -256
WIRE 784 -240 784 -256
WIRE 672 -144 672 -160
WIRE 784 -144 784 -160
WIRE 512 -64 432 -64
WIRE -256 64 -272 64
WIRE 368 64 368 -64
WIRE 368 64 272 64
WIRE 384 64 368 64
WIRE -112 80 -192 80
WIRE 48 80 -32 80
WIRE 192 80 192 64
WIRE 192 80 48 80
WIRE 512 80 512 -64
WIRE 512 80 448 80
WIRE 608 80 512 80
WIRE -256 96 -368 96
WIRE 384 96 320 96
WIRE 320 144 320 96
WIRE 912 192 896 192
WIRE -368 240 -368 96
WIRE -192 240 -368 240
WIRE 48 240 48 80
WIRE 48 240 -112 240
WIRE -368 304 -368 240
WIRE -368 496 -368 384
WIRE 512 496 512 80
WIRE 512 496 -368 496
WIRE 496 1168 416 1168
WIRE -272 1296 -288 1296
WIRE 240 1296 240 1248
WIRE 352 1296 352 1168
WIRE 352 1296 240 1296
WIRE 368 1296 352 1296
WIRE -128 1312 -208 1312
WIRE 32 1312 -48 1312
WIRE 96 1312 96 1248
WIRE 96 1312 32 1312
WIRE 496 1312 496 1168
WIRE 496 1312 432 1312
WIRE 592 1312 496 1312
WIRE -272 1328 -384 1328
WIRE 368 1328 304 1328
WIRE 96 1360 96 1312
WIRE 240 1360 240 1296
WIRE 304 1376 304 1328
WIRE -384 1472 -384 1328
WIRE -208 1472 -384 1472
WIRE 32 1472 32 1312
WIRE 32 1472 -128 1472
WIRE -384 1536 -384 1472
WIRE -384 1728 -384 1616
WIRE 496 1728 496 1312
WIRE 496 1728 -384 1728
FLAG 672 -256 +V
FLAG 672 -144 0
FLAG 608 80 OUT
FLAG -224 48 +V
FLAG 784 -256 -V
FLAG -224 112 -V
FLAG 784 -144 0
FLAG -272 64 0
FLAG 576 512 0
FLAG 48 368 0
FLAG 416 48 +V
FLAG 416 112 -V
FLAG 944 176 +V
FLAG 944 240 -V
FLAG 320 224 0
FLAG 592 1312 OUT2
FLAG -240 1280 +V
FLAG -240 1344 -V
FLAG -288 1296 0
FLAG 560 1744 0
FLAG 32 1600 0
FLAG 400 1280 +V
FLAG 400 1344 -V
FLAG 304 1456 0
SYMBOL voltage 672 -256 R0
WINDOW 123 0 0 Left 2
WINDOW 39 0 0 Left 2
SYMATTR InstName V1
SYMATTR Value 15
SYMBOL voltage 784 -256 R0
WINDOW 123 24 146 Left 2
WINDOW 39 24 125 Left 2
SYMATTR InstName V2
SYMATTR Value -15
SYMBOL AD712 -224 16 R0
SYMATTR InstName U1
SYMBOL res -16 64 R90
WINDOW 0 0 56 VBottom 2
WINDOW 3 32 56 VTop 2
SYMATTR InstName R3
SYMATTR Value 5.1k
SYMBOL res -96 224 R90
WINDOW 0 0 56 VBottom 2
WINDOW 3 32 56 VTop 2
SYMATTR InstName R4
SYMATTR Value 10k
SYMBOL diode 560 384 R0
SYMATTR InstName D1
SYMATTR Value UDZV6_2B
SYMATTR Description Diode
SYMATTR Type diode
SYMBOL diode 592 512 R180
WINDOW 0 24 64 Left 2
WINDOW 3 -123 6 Left 2
SYMATTR InstName D2
SYMATTR Value UDZV6_2B
SYMATTR Description Diode
SYMATTR Type diode
SYMBOL diode 32 240 R0
SYMATTR InstName D7
SYMATTR Value UDZV6_2B
SYMATTR Description Diode
SYMATTR Type diode
SYMBOL diode 64 368 R180
WINDOW 0 24 64 Left 2
WINDOW 3 -123 6 Left 2
SYMATTR InstName D8
SYMATTR Value UDZV6_2B
SYMATTR Description Diode
SYMATTR Type diode
SYMBOL res -384 288 R0
SYMATTR InstName R1
SYMATTR Value 10k
SYMBOL AD712 416 16 R0
SYMATTR InstName U3
SYMBOL AD712 944 144 R0
SYMATTR InstName U4
SYMBOL cap 432 -80 R90
WINDOW 0 0 32 VBottom 2
WINDOW 3 32 32 VTop 2
SYMATTR InstName C1
SYMATTR Value 0.22µ
SYMBOL res 288 48 R90
WINDOW 0 0 56 VBottom 2
WINDOW 3 32 56 VTop 2
SYMATTR InstName R2
SYMATTR Value 10k
SYMBOL res 304 128 R0
SYMATTR InstName R5
SYMATTR Value 10k
SYMBOL diode 160 1232 R90
WINDOW 0 0 32 VBottom 2
WINDOW 3 32 32 VTop 2
SYMATTR InstName D9
SYMATTR Value 1N4148
SYMBOL diode 96 1376 R270
WINDOW 0 32 32 VTop 2
WINDOW 3 0 32 VBottom 2
SYMATTR InstName D10
SYMATTR Value 1N4148
SYMBOL res 256 1232 R90
WINDOW 0 0 56 VBottom 2
WINDOW 3 32 56 VTop 2
SYMATTR InstName R12
SYMATTR Value 10k
SYMBOL res 256 1344 R90
WINDOW 0 0 56 VBottom 2
WINDOW 3 32 56 VTop 2
SYMATTR InstName R13
SYMATTR Value 50k
SYMBOL AD712 -240 1248 R0
SYMATTR InstName U2
SYMBOL res -32 1296 R90
WINDOW 0 0 56 VBottom 2
WINDOW 3 32 56 VTop 2
SYMATTR InstName R6
SYMATTR Value 5.1k
SYMBOL res -112 1456 R90
WINDOW 0 0 56 VBottom 2
WINDOW 3 32 56 VTop 2
SYMATTR InstName R7
SYMATTR Value 10k
SYMBOL diode 544 1616 R0
SYMATTR InstName D3
SYMATTR Value UDZV6_2B
SYMATTR Description Diode
SYMATTR Type diode
SYMBOL diode 576 1744 R180
WINDOW 0 24 64 Left 2
WINDOW 3 -123 6 Left 2
SYMATTR InstName D4
SYMATTR Value UDZV6_2B
SYMATTR Description Diode
SYMATTR Type diode
SYMBOL diode 16 1472 R0
SYMATTR InstName D5
SYMATTR Value UDZV6_2B
SYMATTR Description Diode
SYMATTR Type diode
SYMBOL diode 48 1600 R180
WINDOW 0 24 64 Left 2
WINDOW 3 -123 6 Left 2
SYMATTR InstName D6
SYMATTR Value UDZV6_2B
SYMATTR Description Diode
SYMATTR Type diode
SYMBOL res -400 1520 R0
SYMATTR InstName R8
SYMATTR Value 10k
SYMBOL AD712 400 1248 R0
SYMATTR InstName U5
SYMBOL cap 416 1152 R90
WINDOW 0 0 32 VBottom 2
WINDOW 3 32 32 VTop 2
SYMATTR InstName C2
SYMATTR Value 0.22µ
SYMBOL res 288 1360 R0
SYMATTR InstName R10
SYMATTR Value 10k
TEXT -208 576 Left 2 !.tran 0 1 0.9 1m
