Version 4.1
SHEET 1 1828 1824
WIRE 512 -64 432 -64
WIRE 1648 -48 1648 -64
WIRE 1760 -48 1760 -64
WIRE 1648 48 1648 32
WIRE 1760 48 1760 32
WIRE -256 64 -272 64
WIRE 368 64 368 -64
WIRE 368 64 272 64
WIRE 384 64 368 64
WIRE -112 80 -192 80
WIRE 48 80 -32 80
WIRE 192 80 192 64
WIRE 192 80 48 80
WIRE 512 80 512 -64
WIRE 512 80 448 80
WIRE 608 80 512 80
WIRE -256 96 -368 96
WIRE 384 96 320 96
WIRE 320 144 320 96
WIRE 912 192 896 192
WIRE -368 240 -368 96
WIRE -192 240 -368 240
WIRE 48 240 48 80
WIRE 48 240 -112 240
WIRE -368 304 -368 240
WIRE -368 496 -368 384
WIRE 512 496 512 80
WIRE 512 496 -368 496
WIRE 480 576 400 576
WIRE -288 704 -304 704
WIRE 224 704 224 656
WIRE 336 704 336 576
WIRE 336 704 224 704
WIRE 352 704 336 704
WIRE -144 720 -224 720
WIRE 16 720 -64 720
WIRE 80 720 80 656
WIRE 80 720 16 720
WIRE 480 720 480 576
WIRE 480 720 416 720
WIRE 576 720 480 720
WIRE -288 736 -400 736
WIRE 352 736 288 736
WIRE 80 768 80 720
WIRE 224 768 224 704
WIRE 288 784 288 736
WIRE -400 880 -400 736
WIRE -224 880 -400 880
WIRE 16 880 16 720
WIRE 16 880 -144 880
WIRE -400 944 -400 880
WIRE -400 1136 -400 1024
WIRE 480 1136 480 720
WIRE 480 1136 -400 1136
FLAG 1648 -64 +V
FLAG 1648 48 0
FLAG 608 80 OUT
FLAG -224 48 +V
FLAG 1760 -64 -V
FLAG -224 112 -V
FLAG 1760 48 0
FLAG -272 64 0
FLAG 1360 512 0
FLAG 48 368 0
FLAG 416 48 +V
FLAG 416 112 -V
FLAG 944 176 +V
FLAG 944 240 -V
FLAG 320 224 0
FLAG 576 720 OUT2
FLAG -256 688 +V
FLAG -256 752 -V
FLAG -304 704 0
FLAG 1568 944 0
FLAG 16 1008 0
FLAG 384 688 +V
FLAG 384 752 -V
FLAG 288 864 0
SYMBOL voltage 1648 -64 R0
WINDOW 123 0 0 Left 2
WINDOW 39 0 0 Left 2
SYMATTR InstName V1
SYMATTR Value 15
SYMBOL voltage 1760 -64 R0
WINDOW 123 24 146 Left 2
WINDOW 39 24 125 Left 2
SYMATTR InstName V2
SYMATTR Value -15
SYMBOL AD712 -224 16 R0
SYMATTR InstName U1
SYMBOL res -16 64 R90
WINDOW 0 0 56 VBottom 2
WINDOW 3 32 56 VTop 2
SYMATTR InstName R3
SYMATTR Value 5.1k
SYMBOL res -96 224 R90
WINDOW 0 0 56 VBottom 2
WINDOW 3 32 56 VTop 2
SYMATTR InstName R4
SYMATTR Value 10k
SYMBOL diode 1344 384 R0
SYMATTR InstName D1
SYMATTR Value UDZV6_2B
SYMBOL diode 1376 512 R180
WINDOW 0 24 64 Left 2
WINDOW 3 -123 6 Left 2
SYMATTR InstName D2
SYMATTR Value UDZV6_2B
SYMBOL diode 32 240 R0
SYMATTR InstName D7
SYMATTR Value UDZV6_2B
SYMBOL diode 64 368 R180
WINDOW 0 24 64 Left 2
WINDOW 3 -123 6 Left 2
SYMATTR InstName D8
SYMATTR Value UDZV6_2B
SYMBOL res -384 288 R0
SYMATTR InstName R1
SYMATTR Value 10k
SYMBOL AD712 416 16 R0
SYMATTR InstName U3
SYMBOL AD712 944 144 R0
SYMATTR InstName U4
SYMBOL cap 432 -80 R90
WINDOW 0 0 32 VBottom 2
WINDOW 3 32 32 VTop 2
SYMATTR InstName C1
SYMATTR Value 0.22µ
SYMBOL res 288 48 R90
WINDOW 0 0 56 VBottom 2
WINDOW 3 32 56 VTop 2
SYMATTR InstName R2
SYMATTR Value 10k
SYMBOL res 304 128 R0
SYMATTR InstName R5
SYMATTR Value 10k
SYMBOL diode 144 640 R90
WINDOW 0 0 32 VBottom 2
WINDOW 3 32 32 VTop 2
SYMATTR InstName D9
SYMATTR Value 1N4148
SYMBOL diode 80 784 R270
WINDOW 0 32 32 VTop 2
WINDOW 3 0 32 VBottom 2
SYMATTR InstName D10
SYMATTR Value 1N4148
SYMBOL res 240 640 R90
WINDOW 0 0 56 VBottom 2
WINDOW 3 32 56 VTop 2
SYMATTR InstName R12
SYMATTR Value 10k
SYMBOL res 240 752 R90
WINDOW 0 0 56 VBottom 2
WINDOW 3 32 56 VTop 2
SYMATTR InstName R13
SYMATTR Value 50k
SYMBOL AD712 -256 656 R0
SYMATTR InstName U2
SYMBOL res -48 704 R90
WINDOW 0 0 56 VBottom 2
WINDOW 3 32 56 VTop 2
SYMATTR InstName R6
SYMATTR Value 5.1k
SYMBOL res -128 864 R90
WINDOW 0 0 56 VBottom 2
WINDOW 3 32 56 VTop 2
SYMATTR InstName R7
SYMATTR Value 10k
SYMBOL diode 1552 816 R0
SYMATTR InstName D3
SYMATTR Value UDZV6_2B
SYMBOL diode 1584 944 R180
WINDOW 0 24 64 Left 2
WINDOW 3 -123 6 Left 2
SYMATTR InstName D4
SYMATTR Value UDZV6_2B
SYMBOL diode 0 880 R0
SYMATTR InstName D5
SYMATTR Value UDZV6_2B
SYMBOL diode 32 1008 R180
WINDOW 0 24 64 Left 2
WINDOW 3 -123 6 Left 2
SYMATTR InstName D6
SYMATTR Value UDZV6_2B
SYMBOL res -416 928 R0
SYMATTR InstName R8
SYMATTR Value 10k
SYMBOL AD712 384 656 R0
SYMATTR InstName U5
SYMBOL cap 400 560 R90
WINDOW 0 0 32 VBottom 2
WINDOW 3 32 32 VTop 2
SYMATTR InstName C2
SYMATTR Value 0.22µ
SYMBOL res 272 768 R0
SYMATTR InstName R10
SYMATTR Value 10k
TEXT -208 576 Left 2 !.tran 0 1 0.9 1m
